geometry optimzed in LAMMPS
_audit_creation_date              2020-11-30 
_audit_creation_method            'lammps2cif' 
_symmetry_space_group_name_H-M    'P1' 
_symmetry_Int_Tables_number       1 
_symmetry_cell_setting            triclinic 
loop_ 
_symmetry_equiv_pos_as_xyz 
  x,y,z 
_cell_length_a                    38.98505104 
_cell_length_b                    26.225393719598102 
_cell_length_c                    49.68056214748306 
_cell_angle_alpha                 89.98129978850723 
_cell_angle_beta                  90.98492197663062 
_cell_angle_gamma                 88.1580910033449 
loop_ 
_atom_site_label 
_atom_site_type_symbol 
_atom_site_fract_x 
_atom_site_fract_y 
_atom_site_fract_z 
_atom_site_charge 
C1          C  0.03958302  0.48235138  0.14603816     0.32200
C2          C  0.47003259  0.48659470  0.14817527     0.32200
C3          C  0.02268712  0.48563174  0.17397564    -0.04000
C4          C  0.02710076  0.04507590  0.12711861    -0.04800
C5          C  0.02117078  0.43649635  0.13302929    -0.04600
C6          C  0.48700753  0.49007870  0.17641616    -0.04000
C7          C  0.49100886  0.04440491  0.12243984    -0.04700
C8          C  0.48936263  0.43969606  0.13624697    -0.04600
C9          C  0.47610015  0.49146104  0.20271654    -0.30000
N10         N  0.50990483  0.00321121  0.20832399     0.16500
C11         C  0.03349654  0.48859294  0.20061417    -0.30000
H12         H  0.06402945  0.99323291  0.20249117     0.18400
C13         C  0.47986652  0.08416542  0.10598121    -0.29000
N14         N  0.00794227  0.10945236  0.10095098     0.15200
C15         C  0.03676981  0.08507102  0.11100203    -0.29000
C16         C  0.48074270  0.40228001  0.11810710    -0.29300
N17         N  0.00131995  0.37736382  0.10467901     0.15700
H18         H  0.45516189  0.39552917  0.11036538     0.18300
C19         C  0.03031835  0.39762407  0.11539220    -0.29300
H20         H  0.05607834  0.38804022  0.10895918     0.18300
H21         H  0.06274624  0.09318255  0.10526686     0.18300
H22         H  0.45537862  0.00245523  0.19894355     0.18400
H23         H  0.45349888  0.09393983  0.10067278     0.18300
C24         C  0.21920786  0.48679309  0.14694305     0.32200
C25         C  0.29060549  0.48805622  0.14750793     0.32200
C26         C  0.23703045  0.48880483  0.17486286    -0.04000
C27         C  0.23816575  0.44069617  0.13406871    -0.04800
C28         C  0.24019241  0.04542115  0.12535987    -0.04600
C29         C  0.27312336  0.48932103  0.17518427    -0.04000
C30         C  0.27421653  0.44166227  0.13395105    -0.04700
C31         C  0.27627523  0.04515599  0.12524840    -0.04600
C32         C  0.28352927  0.49248069  0.20182239    -0.30000
N33         N  0.25517906  0.49382397  0.21738071     0.16500
C34         C  0.22675750  0.49162201  0.20127204    -0.30000
H35         H  0.20059693  0.49246810  0.20825440     0.18400
C36         C  0.28524647  0.40451715  0.11607194    -0.29000
N37         N  0.25742158  0.37998925  0.10643808     0.15200
C38         C  0.22869681  0.40183177  0.11717263    -0.29000
C39         C  0.28541425  0.08426784  0.10860351    -0.29300
N40         N  0.25637822  0.10886976  0.09928587     0.15700
H41         H  0.31124953  0.09264041  0.10260147     0.18300
C42         C  0.22868452  0.08555000  0.10933849    -0.29300
H43         H  0.20228988  0.09468731  0.10376954     0.18300
H44         H  0.20269367  0.39321919  0.11113506     0.18300
H45         H  0.30971657  0.49417620  0.20932990     0.18400
H46         H  0.31126064  0.39793095  0.10932105     0.18300
C47         C  0.03977868  0.51007446  0.42126337     0.32200
C48         C  0.46837798  0.50931894  0.42342796     0.32200
C49         C  0.02182778  0.50855916  0.39335962    -0.04000
C50         C  0.02312724  0.46541201  0.43595973    -0.04800
C51         C  0.02365127  0.04479921  0.42748694    -0.04600
C52         C  0.48546537  0.50797417  0.39567226    -0.04000
C53         C  0.48722933  0.46464915  0.43799742    -0.04700
C54         C  0.48786236  0.04617913  0.42617183    -0.04600
C55         C  0.47468265  0.50475980  0.36912925    -0.30000
N56         N  0.00343143  0.50620933  0.35074376     0.17700
C57         C  0.03193505  0.50684269  0.36685922    -0.30000
H58         H  0.05806697  0.50608156  0.35981002     0.18400
C59         C  0.47779656  0.42433904  0.45351884    -0.29000
N60         N  0.00572772  0.40100924  0.46109711     0.15200
C61         C  0.03396952  0.42378096  0.45149170    -0.29000
C62         C  0.47705605  0.08524167  0.44290787    -0.29300
N63         N  0.00469032  0.10989758  0.45251961     0.15700
H64         H  0.45081769  0.09439324  0.44838739     0.18300
C65         C  0.03344437  0.08500725  0.44355514    -0.29300
H66         H  0.05941505  0.09346901  0.44972319     0.18300
H67         H  0.06021469  0.41221922  0.45629654     0.18300
H68         H  0.44838789  0.50340864  0.36182618     0.18400
H69         H  0.45178716  0.41478104  0.45842719     0.18300
C70         C  0.21855205  0.50708095  0.42108488     0.32200
C71         C  0.28973787  0.50639038  0.42222210     0.32200
C72         C  0.23616800  0.50564552  0.39355211    -0.04000
C73         C  0.23644735  0.04143902  0.42419965    -0.04800
C74         C  0.23691784  0.46189258  0.43583979    -0.04600
C75         C  0.27223022  0.50528983  0.39411784    -0.04000
C76         C  0.27244916  0.04317990  0.42432538    -0.04700
C77         C  0.27293810  0.46184673  0.43668073    -0.04600
C78         C  0.28266598  0.50472034  0.36770607    -0.30000
N79         N  0.25579593  0.98823995  0.34180563     0.16500
C80         C  0.22587019  0.50522402  0.36683868    -0.30000
H81         H  0.20126932  0.98749104  0.34982197     0.18400
C82         C  0.28124809  0.08339112  0.44065277    -0.29000
N83         N  0.25200422  0.10564880  0.45027372     0.15200
C84         C  0.22465507  0.08002103  0.44077034    -0.29000
C85         C  0.28393174  0.42129009  0.45268797    -0.29300
N86         N  0.25592048  0.39626339  0.46088502     0.15700
H87         H  0.31019659  0.41084444  0.45804049     0.18300
C88         C  0.22722199  0.42043564  0.45062541    -0.29300
H89         H  0.20114021  0.40951340  0.45439205     0.18300
H90         H  0.19839820  0.08688038  0.44688945     0.18300
H91         H  0.31032578  0.99148307  0.35081172     0.18400
H92         H  0.30698660  0.09312732  0.44684952     0.18300
Zn93       Zn  0.03040405  0.24544320  0.05535281     1.49700
Zn94       Zn  0.48816563  0.32616345  0.02909671     1.49400
Zn95       Zn  0.02118510  0.24874318  0.49345133     1.49100
Zn96       Zn  0.47162465  0.20164969  0.03069253     1.49500
O97         O  0.99883549  0.24646355  0.02626001    -1.81900
O98         O  0.02367538  0.30590890  0.08133810    -0.72500
O99         O  0.48507487  0.35767423  0.49966397    -0.72300
O100        O  0.05880080  0.26070162  0.99019667    -0.71900
O101        O  0.49465745  0.36038820  0.06458364    -0.72500
O102        O  0.07075385  0.25785211  0.03468106    -0.72100
O103        O  0.02382555  0.31841647  0.47500111    -0.72700
O104        O  0.49674327  0.13416824  0.49781569    -0.72100
O105        O  0.43983516  0.32442772  0.02230773    -0.72900
O106        O  0.00592532  0.19522358  0.46653567    -0.72300
O107        O  0.42930546  0.24083769  0.02632956    -0.72700
O108        O  0.47823321  0.16156296  0.06545409    -0.72600
O109        O  0.03128887  0.17783284  0.07702943    -0.72400
C110        C  0.00031127  0.34097488  0.08286724     0.79400
C111        C  0.00477251  0.35799417  0.47897731     0.79900
C112        C  0.07882900  0.26545980  0.01022050     0.78800
C113        C  0.00372538  0.14844371  0.47291831     0.79200
C114        C  0.42012455  0.28711881  0.02133237     0.80300
C115        C  0.00630921  0.14807485  0.08029732     0.79400
Zn116      Zn  0.22607379  0.24979972  0.06040555     1.49700
Zn117      Zn  0.23498651  0.24569212  0.48860776     1.49400
Zn118      Zn  0.27179089  0.31581683  0.02743421     1.49100
Zn119      Zn  0.27766344  0.18914014  0.02673866     1.49500
O120        O  0.25043235  0.25083620  0.02730389    -1.81900
O121        O  0.18011249  0.26920153  0.04942427    -0.72500
O122        O  0.23778939  0.31458287  0.47110709    -0.72300
O123        O  0.27360568  0.35204326  0.06356935    -0.71900
O124        O  0.18186604  0.27267347  0.00429969    -0.72500
O125        O  0.23808971  0.30529404  0.08666991    -0.72100
O126        O  0.27518105  0.34973765  0.49890610    -0.72700
O127        O  0.32208309  0.21089456  0.01573237    -0.72100
O128        O  0.25607664  0.19000697  0.46515156    -0.72900
O129        O  0.31658304  0.29631887  0.01607270    -0.72300
O130        O  0.24406402  0.13096004  0.49491167    -0.72700
O131        O  0.27874660  0.15131311  0.06236668    -0.72600
O132        O  0.22986195  0.18135864  0.07948755    -0.72400
C133        C  0.16674999  0.27915327  0.02652489     0.79400
C134        C  0.25636755  0.35166795  0.47767106     0.79900
C135        C  0.25696248  0.34371615  0.08485485     0.78800
C136        C  0.33331360  0.25500469  0.01162075     0.79200
C137        C  0.25060614  0.14369725  0.47086261     0.80300
C138        C  0.25499921  0.14901204  0.07962409     0.79400
C139        C  0.38527582  0.29716217  0.01369234    -0.14200
C140        C  0.36798570  0.25838126  0.00384337    -0.29400
H141        H  0.37288992  0.33250515  0.02050009     0.14800
H142        H  0.38103099  0.22356558  0.99694165     0.15400
C143        C  0.11293303  0.27979748  0.00500863    -0.14200
C144        C  0.13169210  0.29512823  0.02576829    -0.29400
H145        H  0.12401287  0.26871635  0.98585567     0.14800
H146        H  0.12014233  0.30653062  0.04471078     0.15400
C147        C  0.32870697  0.50653357  0.42283767    -0.16300
C148        C  0.36035833  0.50724442  0.42314222     0.07800
C149        C  0.39775136  0.50820943  0.42335525     0.09600
C150        C  0.42940465  0.50887967  0.42343591    -0.17100
C151        C  0.07876599  0.50948409  0.42138646    -0.16300
C152        C  0.11044661  0.50888831  0.42124743     0.07800
C153        C  0.14787903  0.50813294  0.42099577     0.09600
C154        C  0.17955953  0.50755464  0.42085944    -0.17100
C155        C  0.25515284  0.49736716  0.24568968    -0.16300
C156        C  0.25494896  0.50007633  0.27004857     0.07800
C157        C  0.25462997  0.50245763  0.29865297     0.09600
C158        C  0.25586456  0.98708679  0.31350888    -0.17100
C159        C  0.32975405  0.48822048  0.14757950    -0.16300
C160        C  0.36153102  0.48759769  0.14746250     0.07800
C161        C  0.39912192  0.48668825  0.14733541     0.09600
C162        C  0.43089874  0.48621771  0.14742214    -0.17100
C163        C  0.07881422  0.48126792  0.14589112    -0.16300
C164        C  0.11060833  0.48217319  0.14597667     0.07800
C165        C  0.14821439  0.48405172  0.14621472     0.09600
C166        C  0.17998861  0.48564009  0.14649627    -0.17100
C167        C  0.00341439  0.50422563  0.32231905    -0.16300
C168        C  0.00395786  0.50222353  0.29788472     0.07800
C169        C  0.50302800  0.49556930  0.27205200     0.09600
C170        C  0.50979513  0.00162481  0.23670964    -0.17100
C171        C  0.02993502  0.49646486  0.63964305     0.32200
C172        C  0.45877301  0.50133924  0.63843846     0.32200
C173        C  0.01215139  0.49895132  0.66719412    -0.04000
C174        C  0.01187803  0.05503958  0.63296028    -0.04800
C175        C  0.01239396  0.45087246  0.62608586    -0.04600
C176        C  0.47581138  0.50293971  0.66669288    -0.04000
C177        C  0.47621239  0.05225647  0.63256136    -0.04700
C178        C  0.47683029  0.45431140  0.62591425    -0.04600
C179        C  0.46475187  0.50435460  0.69293265    -0.30000
N180        N  0.49520022  0.01356665  0.71867398     0.16500
C181        C  0.02212326  0.50087112  0.69403163    -0.30000
H182        H  0.05001546  0.00763723  0.70890484     0.18400
C183        C  0.46465074  0.08948616  0.61458924    -0.29000
N184        N  0.99198883  0.11501888  0.60450818     0.15200
C185        C  0.02092785  0.09376750  0.61603703    -0.29000
C186        C  0.46692366  0.41531414  0.60923454    -0.29300
N187        N  0.99437551  0.38890873  0.59915593     0.15700
H188        H  0.44093699  0.40782847  0.60269561     0.18300
C189        C  0.02273816  0.41065427  0.60990840    -0.29300
H190        H  0.04890944  0.40024038  0.60483730     0.18300
H191        H  0.04681892  0.10293595  0.61069499     0.18300
H192        H  0.44081224  0.01079984  0.70903626     0.18400
H193        H  0.43837260  0.09673863  0.60791016     0.18300
C194        C  0.20902137  0.49370170  0.63753403     0.32200
C195        C  0.28016664  0.49487331  0.63803903     0.32200
C196        C  0.22691375  0.49359676  0.66552535    -0.04000
C197        C  0.22788957  0.44836404  0.62341657    -0.04800
C198        C  0.22727465  0.05454258  0.63333113    -0.04600
C199        C  0.26291611  0.49424913  0.66584408    -0.04000
C200        C  0.26388418  0.44924742  0.62360402    -0.04700
C201        C  0.26337571  0.05319422  0.63314052    -0.04600
C202        C  0.27335838  0.49585043  0.69262542    -0.30000
N203        N  0.24503514  0.49607195  0.70828571     0.16500
C204        C  0.21667307  0.49475018  0.69202808    -0.30000
H205        H  0.19049040  0.49514756  0.69897315     0.18400
C206        C  0.27540843  0.40992904  0.60720461    -0.29000
N207        N  0.24788497  0.38465538  0.59739274     0.15200
C208        C  0.21883969  0.40781829  0.60719080    -0.29000
C209        C  0.27297616  0.08849762  0.61435568    -0.29300
N210        N  0.24436172  0.11271186  0.60403162     0.15700
H211        H  0.29877269  0.09373702  0.60734578     0.18300
C212        C  0.21636495  0.09197770  0.61517596    -0.29300
H213        H  0.19011574  0.10004386  0.60865523     0.18300
H214        H  0.19294456  0.39764762  0.60176932     0.18300
H215        H  0.29953998  0.49725903  0.70013471     0.18400
H216        H  0.30183703  0.40155922  0.60198860     0.18300
C217        C  0.02605699  0.50219702  0.91454342     0.32200
C218        C  0.45521747  0.50471644  0.91412985     0.32200
C219        C  0.00840830  0.50191989  0.88650714    -0.04000
C220        C  0.00904913  0.45717799  0.92882524    -0.04800
C221        C  0.01407521  0.03035524  0.93375338    -0.04600
C222        C  0.47215492  0.50616845  0.88625529    -0.04000
C223        C  0.47458272  0.45903840  0.92759370    -0.04700
C224        C  0.47587353  0.03909147  0.93715382    -0.04600
C225        C  0.46135348  0.50620528  0.85961955    -0.30000
N226        N  0.99038725  0.50518609  0.84376031     0.17700
C227        C  0.01876043  0.50361824  0.86006677    -0.30000
H228        H  0.04493385  0.50426936  0.85320748     0.18400
C229        C  0.46586893  0.41924658  0.94403766    -0.29000
N230        N  0.99128306  0.39502641  0.95543520     0.15200
C231        C  0.01958407  0.41775037  0.94590650    -0.29000
C232        C  0.46484449  0.07983102  0.95275112    -0.29300
N233        N  0.99769527  0.09599014  0.95893235     0.15700
H234        H  0.43859963  0.08958596  0.95790420     0.18300
C235        C  0.02552590  0.07046616  0.94900026    -0.29300
H236        H  0.05196818  0.07909643  0.95355314     0.18300
H237        H  0.04573981  0.40768477  0.95182602     0.18300
H238        H  0.43505362  0.50530573  0.85226000     0.18400
H239        H  0.44014581  0.40962457  0.94971951     0.18300
C240        C  0.20531999  0.50403620  0.91316043     0.32200
C241        C  0.27650919  0.50440040  0.91363980     0.32200
C242        C  0.22270766  0.50139405  0.88535847    -0.04000
C243        C  0.22583929  0.03467753  0.93466788    -0.04800
C244        C  0.22425808  0.45984215  0.92850605    -0.04600
C245        C  0.25875304  0.50157683  0.88572380    -0.04000
C246        C  0.26187339  0.03408873  0.93556344    -0.04700
C247        C  0.26024066  0.46038123  0.92885749    -0.04600
C248        C  0.26913898  0.50099813  0.85928452    -0.30000
N249        N  0.24677376  0.98901217  0.85111713     0.16500
C250        C  0.21241585  0.50063936  0.85852683    -0.30000
H251        H  0.19195976  0.98916906  0.85813285     0.18400
C252        C  0.27151284  0.07469513  0.95106432    -0.29000
N253        N  0.24287761  0.10079864  0.95919792     0.15200
C254        C  0.21477196  0.07698976  0.94930932    -0.29000
C255        C  0.27193253  0.42156293  0.94574518    -0.29300
N256        N  0.24443005  0.39679362  0.95505601     0.15700
H257        H  0.29836397  0.41282460  0.95142764     0.18300
C258        C  0.21527134  0.41980018  0.94480476    -0.29300
H259        H  0.18943786  0.40958949  0.94982457     0.18300
H260        H  0.18846396  0.08801337  0.95359997     0.18300
H261        H  0.30107865  0.98942311  0.86135562     0.18400
H262        H  0.29755453  0.08390796  0.95668083     0.18300
Zn263      Zn  0.02283608  0.24747360  0.56063787     1.49700
Zn264      Zn  0.47170260  0.30869864  0.52811431     1.49400
Zn265      Zn  0.01110723  0.24785959  0.98828173     1.49100
Zn266      Zn  0.47849417  0.18233279  0.52658727     1.49500
O267        O  0.99806397  0.24873329  0.52736124    -1.81900
O268        O  0.01968743  0.31609240  0.57947679    -0.72500
O269        O  0.50552226  0.36909571  0.99849953    -0.72300
O270        O  0.06553839  0.22300308  0.50495908    -0.71900
O271        O  0.47171960  0.34668721  0.56380987    -0.72500
O272        O  0.06851657  0.22577105  0.55010706    -0.72100
O273        O  0.99284179  0.30785225  0.96584432    -0.72700
O274        O  0.47478374  0.15034655  0.99962180    -0.72100
O275        O  0.42750232  0.28719205  0.51504356    -0.72900
O276        O  0.00607099  0.18174523  0.96827181    -0.72300
O277        O  0.43387109  0.20199359  0.51246802    -0.72700
O278        O  0.47656911  0.14389907  0.56224521    -0.72600
O279        O  0.00999436  0.19157958  0.58630621    -0.72400
C280        C  0.99457884  0.34858723  0.57955226     0.79400
C281        C  0.99127496  0.35357837  0.97436306     0.79900
C282        C  0.08104845  0.21493812  0.52733433     0.78800
C283        C  0.99817105  0.13820615  0.97697572     0.79200
C284        C  0.41705538  0.24362512  0.50828683     0.80300
C285        C  0.99217001  0.15215338  0.58323015     0.79400
Zn286      Zn  0.21971123  0.24740314  0.55475957     1.49700
Zn287      Zn  0.22669221  0.25263556  0.99280262     1.49400
Zn288      Zn  0.28101245  0.29612115  0.52880187     1.49100
Zn289      Zn  0.26447770  0.17190252  0.52540172     1.49500
O290        O  0.25004475  0.24296891  0.52583544    -1.81900
O291        O  0.17751368  0.23434189  0.53489328    -0.72500
O292        O  0.23819298  0.31133499  0.96773792    -0.72300
O293        O  0.27659105  0.33446104  0.56479554    -0.71900
O294        O  0.18763013  0.22844651  0.49052850    -0.72500
O295        O  0.22264773  0.31648482  0.57414376    -0.72100
O296        O  0.25545375  0.36606379  0.99865259    -0.72700
O297        O  0.31178560  0.17428726  0.51585569    -0.72100
O298        O  0.22598849  0.18410289  0.97253907    -0.72900
O299        O  0.32319678  0.25733525  0.52106931    -0.72300
O300        O  0.26376289  0.14011765  0.99784080    -0.72700
O301        O  0.26107699  0.13531540  0.56082122    -0.72600
O302        O  0.22628821  0.18909021  0.58241111    -0.72400
C303        C  0.16845533  0.22438760  0.51064952     0.79400
C304        C  0.24600150  0.35638114  0.97461097     0.79900
C305        C  0.24913940  0.34333231  0.57806900     0.78800
C306        C  0.33144896  0.21152781  0.51430497     0.79200
C307        C  0.24363225  0.14325485  0.97747474     0.80300
C308        C  0.24386464  0.14723705  0.58152147     0.79400
C309        C  0.38309905  0.24120410  0.49738093    -0.14200
C310        C  0.36528116  0.20136716  0.50458693    -0.29400
H311        H  0.37024259  0.27727156  0.49190330     0.14800
H312        H  0.37745508  0.16457966  0.50951114     0.15400
C313        C  0.11578844  0.19646505  0.52688902    -0.14200
C314        C  0.13415083  0.20875972  0.50575989    -0.29400
H315        H  0.12801775  0.18665201  0.54617771     0.14800
H316        H  0.12242963  0.21777524  0.48619367     0.15400
C317        C  0.31549347  0.50464832  0.91398328    -0.16300
C318        C  0.34716644  0.50465433  0.91417673     0.07800
C319        C  0.38459175  0.50442259  0.91428478     0.09600
C320        C  0.41626354  0.50424312  0.91426952    -0.17100
C321        C  0.06520363  0.50206633  0.91483180    -0.16300
C322        C  0.09694944  0.50242773  0.91450343     0.07800
C323        C  0.13448107  0.50306629  0.91385691     0.09600
C324        C  0.16621054  0.50361307  0.91334048    -0.17100
C325        C  0.24480004  0.49787446  0.73676068    -0.16300
C326        C  0.24387532  0.49912985  0.76123879     0.07800
C327        C  0.24230421  0.50001461  0.78999488     0.09600
C328        C  0.24763573  0.99056624  0.82274924    -0.17100
C329        C  0.31913700  0.49636571  0.63803646    -0.16300
C330        C  0.35075330  0.49830253  0.63785357     0.07800
C331        C  0.38811598  0.50055090  0.63764189     0.09600
C332        C  0.41976438  0.50176711  0.63767865    -0.17100
C333        C  0.06904167  0.49489774  0.63972861    -0.16300
C334        C  0.10076651  0.49404237  0.63913182     0.07800
C335        C  0.13825898  0.49344274  0.63820035     0.09600
C336        C  0.16996778  0.49329318  0.63756851    -0.17100
C337        C  0.99053133  0.50699795  0.81533197    -0.16300
C338        C  0.99105456  0.50779365  0.79087677     0.07800
C339        C  0.49079060  0.50472419  0.76240955     0.09600
C340        C  0.49487689  0.01130992  0.74706035    -0.17100
C341        C  0.04512535  0.99768369  0.14028814     0.32200
C342        C  0.47427991  0.00062157  0.13766678     0.32200
C343        C  0.02766822  0.99611653  0.16797566    -0.04000
C344        C  0.02172830  0.52806606  0.13123427    -0.04800
C345        C  0.02769917  0.95346478  0.12535867    -0.04600
C346        C  0.49189956  0.00339084  0.16563037    -0.04000
C347        C  0.48661480  0.53074066  0.13311176    -0.04700
C348        C  0.49277967  0.95362805  0.12540545    -0.04600
C349        C  0.48153159  0.00336414  0.19205430    -0.30000
N350        N  0.50412725  0.49314266  0.21930140     0.16500
C351        C  0.03786791  0.99417881  0.19473661    -0.30000
H352        H  0.05982959  0.48835061  0.20793060     0.18400
C353        C  0.47570630  0.56920817  0.11565864    -0.29000
N354        N  0.00297004  0.59330992  0.10569104     0.15200
C355        C  0.03164419  0.56795036  0.11522928    -0.29000
C356        C  0.48294449  0.91209156  0.11076056    -0.29300
N357        N  0.00925240  0.88885722  0.10056028     0.15700
H358        H  0.45684477  0.90289429  0.10530483     0.18300
C359        C  0.03788980  0.91131072  0.11033122    -0.29300
H360        H  0.06396588  0.89916169  0.10594436     0.18300
H361        H  0.05767873  0.57646402  0.10988930     0.18300
H362        H  0.44980050  0.49082780  0.20931898     0.18400
H363        H  0.44956871  0.57770419  0.10912257     0.18300
C364        C  0.22383586  0.99861106  0.13808099     0.32200
C365        C  0.29512370  0.99854753  0.13818262     0.32200
C366        C  0.24187285  0.99606209  0.16573787    -0.04000
C367        C  0.24212326  0.95436725  0.12319024    -0.04800
C368        C  0.23550088  0.53190334  0.13235018    -0.04600
C369        C  0.27793530  0.99600612  0.16598824    -0.04000
C370        C  0.27815394  0.95455317  0.12293913    -0.04700
C371        C  0.27157302  0.53267342  0.13290151    -0.04600
C372        C  0.28834100  0.99338347  0.19269805    -0.30000
N373        N  0.25992391  0.99184302  0.20814230     0.16500
C374        C  0.23153297  0.99345466  0.19200564    -0.30000
H375        H  0.20536965  0.99279864  0.19890485     0.18400
C376        C  0.28889568  0.91460840  0.10674927    -0.29000
N377        N  0.26071376  0.88994084  0.09790813     0.15200
C378        C  0.23217871  0.91356591  0.10790648    -0.29000
C379        C  0.28084189  0.57303287  0.11714639    -0.29300
N380        N  0.25187587  0.59632458  0.10691967     0.15700
H381        H  0.30676073  0.58300779  0.11222430     0.18300
C382        C  0.22412571  0.57143690  0.11576619    -0.29300
H383        H  0.19781868  0.58024193  0.10973569     0.18300
H384        H  0.20606971  0.90259396  0.10370997     0.18300
H385        H  0.31455526  0.99265754  0.20034596     0.18400
H386        H  0.31510089  0.90420579  0.10177980     0.18300
C387        C  0.04157632  0.99783863  0.41431203     0.32200
C388        C  0.47059488  0.00100346  0.41216599     0.32200
C389        C  0.02373029  0.99710324  0.38640678    -0.04000
C390        C  0.02439071  0.95323280  0.42862617    -0.04800
C391        C  0.02162278  0.55702584  0.43427188    -0.04600
C392        C  0.48856532  0.99942434  0.38467274    -0.04000
C393        C  0.48806787  0.95531046  0.42693415    -0.04700
C394        C  0.48504900  0.55536190  0.43693250    -0.04600
C395        C  0.47867873  0.99933527  0.35780961    -0.30000
N396        N  0.00547501  0.99599185  0.34389268     0.17700
C397        C  0.03395236  0.99576792  0.36000150    -0.30000
H398        H  0.06011817  0.99483911  0.35298955     0.18400
C399        C  0.47739155  0.91925727  0.44489009    -0.29000
N400        N  0.00646462  0.89212264  0.45566827     0.15200
C401        C  0.03483872  0.91363953  0.44554856    -0.29000
C402        C  0.47371078  0.59528045  0.45285223    -0.29300
N403        N  0.00278607  0.62188821  0.45972118     0.15700
H404        H  0.44737333  0.60401181  0.45810049     0.18300
C405        C  0.03144046  0.59765829  0.45003825    -0.29300
H406        H  0.05753971  0.60667654  0.45561220     0.18300
H407        H  0.06099158  0.90397590  0.45176293     0.18300
H408        H  0.45261302  0.00055354  0.34991524     0.18400
H409        H  0.45123548  0.91366003  0.45092337     0.18300
C410        C  0.22058181  0.99390855  0.41154321     0.32200
C411        C  0.29176946  0.99673385  0.41213915     0.32200
C412        C  0.23794455  0.99149349  0.38394304    -0.04000
C413        C  0.23532883  0.55321587  0.43460510    -0.04800
C414        C  0.24008115  0.95054375  0.42682074    -0.04600
C415        C  0.27398648  0.99277475  0.38426386    -0.04000
C416        C  0.27135156  0.55256533  0.43526776    -0.04700
C417        C  0.27607987  0.95219382  0.42756019    -0.04600
C418        C  0.28421385  0.99073328  0.35786407    -0.30000
N419        N  0.25431531  0.50465652  0.35140914     0.16500
C420        C  0.22745852  0.98868929  0.35733994    -0.30000
H421        H  0.19968955  0.50543214  0.35917814     0.18400
C422        C  0.28111336  0.59222967  0.45146267    -0.29000
N423        N  0.25242994  0.61751507  0.46013945     0.15200
C424        C  0.22435222  0.59421968  0.44996359    -0.29000
C425        C  0.28770687  0.91495373  0.44557875    -0.29300
N426        N  0.26011828  0.89006242  0.45476160     0.15700
H427        H  0.31398123  0.90783407  0.45228018     0.18300
C428        C  0.23112569  0.91144468  0.44342560    -0.29300
H429        H  0.20525393  0.90155518  0.44841410     0.18300
H430        H  0.19808429  0.60417287  0.45491471     0.18300
H431        H  0.30887007  0.50447810  0.36083772     0.18400
H432        H  0.30713637  0.60067977  0.45753643     0.18300
Zn433      Zn  0.02233189  0.73607314  0.06798066     1.49700
Zn434      Zn  0.47477443  0.80145128  0.03484178     1.49400
Zn435      Zn  0.03143660  0.75661235  0.50375473     1.49100
Zn436      Zn  0.47809148  0.67540675  0.03511078     1.49500
O437        O  0.99818629  0.73860991  0.03374865    -1.81900
O438        O  0.02401616  0.80462957  0.08782543    -0.72500
O439        O  0.48807300  0.87064713  0.49851690    -0.72300
O440        O  0.06837783  0.71702097  0.01146376    -0.71900
O441        O  0.48979608  0.84778425  0.06413542    -0.72500
O442        O  0.06701599  0.71418869  0.05656060    -0.72100
O443        O  0.02540086  0.81584341  0.47682746    -0.72700
O444        O  0.47308399  0.67026516  0.49508038    -0.72100
O445        O  0.42975216  0.78232162  0.04628565    -0.72900
O446        O  0.02872885  0.68874539  0.48344540    -0.72300
O447        O  0.43452189  0.69702793  0.04834465    -0.72700
O448        O  0.49428468  0.62378251  0.06310382    -0.72600
O449        O  0.00964716  0.67871277  0.09330196    -0.72400
C450        C  0.00764234  0.84637608  0.08245324     0.79400
C451        C  0.00628906  0.85617648  0.47743435     0.79900
C452        C  0.08193142  0.70714574  0.03428357     0.78800
C453        C  0.00216809  0.66204837  0.47956218     0.79200
C454        C  0.41832998  0.73904020  0.05215413     0.80300
C455        C  0.00205073  0.63372505  0.08622408     0.79400
Zn456      Zn  0.23823980  0.73988024  0.07063827     1.49700
Zn457      Zn  0.22600263  0.75983878  0.49843098     1.49400
Zn458      Zn  0.28102341  0.79083136  0.02974196     1.49100
Zn459      Zn  0.26430442  0.66741784  0.03279565     1.49500
O460        O  0.25015483  0.73812233  0.03307502    -1.81900
O461        O  0.19049813  0.72674407  0.06931239    -0.72500
O462        O  0.24063373  0.81456247  0.47293615    -0.72300
O463        O  0.27687054  0.84499709  0.05912914    -0.71900
O464        O  0.17701484  0.73323973  0.02515237    -0.72500
O465        O  0.24378540  0.80749019  0.08848136    -0.72100
O466        O  0.27587985  0.86010039  0.49792141    -0.72700
O467        O  0.31230098  0.66942491  0.04198533    -0.72100
O468        O  0.22754062  0.69124861  0.47932508    -0.72900
O469        O  0.32324093  0.75262231  0.03706949    -0.72300
O470        O  0.27616583  0.65889784  0.49733470    -0.72700
O471        O  0.24445295  0.62496826  0.06253516    -0.72600
O472        O  0.25801526  0.68135462  0.09357687    -0.72400
C473        C  0.16976657  0.72365698  0.04960958     0.79400
C474        C  0.25972001  0.85264740  0.47584594     0.79900
C475        C  0.26062687  0.84556730  0.08115526     0.78800
C476        C  0.33194912  0.70681257  0.04354500     0.79200
C477        C  0.25204770  0.65776873  0.47967383     0.80300
C478        C  0.25120019  0.63582082  0.08697830     0.79400
C479        C  0.38392050  0.73710069  0.06109160    -0.14200
C480        C  0.36621354  0.69721484  0.05316336    -0.29400
H481        H  0.37105296  0.77327779  0.06628927     0.14800
H482        H  0.37844056  0.66042703  0.04832211     0.15400
C483        C  0.11712133  0.69157423  0.03486696    -0.14200
C484        C  0.13597267  0.70830077  0.05524210    -0.29400
H485        H  0.12862667  0.68017146  0.01587122     0.14800
H486        H  0.12507231  0.71936852  0.07448526     0.15400
C487        C  0.33075657  0.99845813  0.41223071    -0.16300
C488        C  0.36241188  0.99988604  0.41197151     0.07800
C489        C  0.39984186  0.00130450  0.41168556     0.09600
C490        C  0.43153316  0.00189079  0.41166828    -0.17100
C491        C  0.08064960  0.99654971  0.41430408    -0.16300
C492        C  0.11235845  0.99533743  0.41361315     0.07800
C493        C  0.14983231  0.99394664  0.41254993     0.09600
C494        C  0.18153454  0.99322116  0.41178851    -0.17100
C495        C  0.25949778  0.98941710  0.23640578    -0.16300
C496        C  0.25826940  0.98777991  0.26069758     0.07800
C497        C  0.25664513  0.98685505  0.28918259     0.09600
C498        C  0.25443325  0.50373470  0.32304434    -0.17100
C499        C  0.33421834  0.99867271  0.13807760    -0.16300
C500        C  0.36594338  0.99910535  0.13782363     0.07800
C501        C  0.40345344  0.99979679  0.13748023     0.09600
C502        C  0.43517743  0.00036596  0.13733535    -0.17100
C503        C  0.08413311  0.99673730  0.14025450    -0.16300
C504        C  0.11579681  0.99683859  0.13968385     0.07800
C505        C  0.15319045  0.99751718  0.13879827     0.09600
C506        C  0.18483651  0.99820034  0.13819059    -0.17100
C507        C  0.00554875  0.99525306  0.31558238    -0.16300
C508        C  0.00626729  0.99468825  0.29124405     0.07800
C509        C  0.50939570  0.00022153  0.26112172     0.09600
C510        C  0.50353092  0.49437603  0.24766098    -0.17100
C511        C  0.03123672  0.00965096  0.64680031     0.32200
C512        C  0.46019959  0.00799122  0.64783982     0.32200
C513        C  0.01369366  0.00836891  0.67437198    -0.04000
C514        C  0.01234441  0.54209545  0.62470688    -0.04800
C515        C  0.01525221  0.96390767  0.63231490    -0.04600
C516        C  0.47757629  0.01175569  0.67588665    -0.04000
C517        C  0.47639100  0.54498752  0.62378540    -0.04700
C518        C  0.47935650  0.96137919  0.63573939    -0.04600
C519        C  0.46699561  0.01238077  0.70226310    -0.30000
N520        N  0.49270010  0.50391483  0.70964222     0.16500
C521        C  0.02388549  0.00741055  0.70113107    -0.30000
H522        H  0.04821957  0.50049170  0.70185669     0.18400
C523        C  0.46623355  0.58511140  0.60718584    -0.29000
N524        N  0.99471601  0.60736129  0.59884169     0.15200
C525        C  0.02291473  0.58250952  0.60948616    -0.29000
C526        C  0.47036676  0.92182962  0.61903814    -0.29300
N527        N  0.99932717  0.89980397  0.60627463     0.15700
H528        H  0.44458435  0.91279628  0.61259567     0.18300
C529        C  0.02688797  0.92506602  0.61579303    -0.29300
H530        H  0.05319673  0.91714685  0.61014207     0.18300
H531        H  0.04923226  0.59207646  0.60560164     0.18300
H532        H  0.43834952  0.50518886  0.69941525     0.18400
H533        H  0.44018993  0.59601661  0.60142559     0.18300
C534        C  0.21045273  0.00855838  0.64681431     0.32200
C535        C  0.28164562  0.00671741  0.64666489     0.32200
C536        C  0.22877745  0.00683560  0.67461819    -0.04000
C537        C  0.22821275  0.96291381  0.63236425    -0.04800
C538        C  0.22509442  0.54015234  0.62391163    -0.04600
C539        C  0.26481100  0.00590581  0.67452407    -0.04000
C540        C  0.26424034  0.96229462  0.63224189    -0.04700
C541        C  0.26108423  0.54016542  0.62410534    -0.04600
C542        C  0.27595164  0.00274769  0.70103812    -0.30000
N543        N  0.24802283  0.00180572  0.71699845     0.16500
C544        C  0.21918579  0.00425124  0.70121291    -0.30000
H545        H  0.19321554  0.00360206  0.70852882     0.18400
C546        C  0.27481322  0.92303304  0.61561802    -0.29000
N547        N  0.24664374  0.89920015  0.60616272     0.15200
C548        C  0.21809731  0.92316357  0.61609117    -0.29000
C549        C  0.27044606  0.58081719  0.60871721    -0.29300
N550        N  0.24165998  0.60632130  0.59958716     0.15700
H551        H  0.29643857  0.59043316  0.60383898     0.18300
C552        C  0.21373671  0.58211092  0.60876745    -0.29300
H553        H  0.18738726  0.59254575  0.60364245     0.18300
H554        H  0.19196279  0.91423829  0.61058701     0.18300
H555        H  0.30237522  0.00068973  0.70818090     0.18400
H556        H  0.30091791  0.91383609  0.60986441     0.18300
C557        C  0.03063953  0.98386613  0.91958348     0.32200
C558        C  0.45930068  0.99340938  0.92308273     0.32200
C559        C  0.01185916  0.98550061  0.89206609    -0.04000
C560        C  0.01309256  0.93929311  0.93363462    -0.04800
C561        C  0.00769171  0.54854933  0.92779745    -0.04600
C562        C  0.47638898  0.99349020  0.89520646    -0.04000
C563        C  0.47831009  0.94827450  0.93720286    -0.04700
C564        C  0.47161664  0.55005236  0.92863455    -0.04600
C565        C  0.46561179  0.99502249  0.86853859    -0.30000
N566        N  0.99229603  0.99134671  0.84998880     0.17700
C567        C  0.02124640  0.98759443  0.86551135    -0.30000
H568        H  0.04716700  0.98735830  0.85802833     0.18400
C569        C  0.46904034  0.90870828  0.95348472    -0.29000
N570        N  0.99517188  0.87870018  0.96094287     0.15200
C571        C  0.02350382  0.89924788  0.95017102    -0.29000
C572        C  0.46078276  0.58684942  0.94677654    -0.29300
N573        N  0.98874257  0.60910541  0.95569080     0.15700
H574        H  0.43483649  0.59359905  0.95366591     0.18300
C575        C  0.01739762  0.58670598  0.94506702    -0.29300
H576        H  0.04344022  0.59462729  0.95130044     0.18300
H577        H  0.04967838  0.88816121  0.95542083     0.18300
H578        H  0.43929030  0.99597456  0.86117382     0.18400
H579        H  0.44308825  0.89965500  0.95888733     0.18300
C580        C  0.20949214  0.98850052  0.92053528     0.32200
C581        C  0.28067619  0.98851492  0.92223958     0.32200
C582        C  0.22761262  0.98809850  0.89308304    -0.04000
C583        C  0.22196252  0.55138397  0.92587173    -0.04800
C584        C  0.22793387  0.94303882  0.93512803    -0.04600
C585        C  0.26364863  0.98817062  0.89404327    -0.04000
C586        C  0.25805830  0.55121386  0.92608233    -0.04700
C587        C  0.26392208  0.94323432  0.93602004    -0.04600
C588        C  0.27471510  0.98878060  0.86781952    -0.30000
N589        N  0.24083666  0.50038040  0.84295455     0.16500
C590        C  0.21796489  0.98863408  0.86617132    -0.30000
H591        H  0.18620893  0.50092576  0.85090033     0.18400
C592        C  0.26794585  0.58815051  0.94400242    -0.29000
N593        N  0.23949012  0.61190456  0.95404344     0.15200
C594        C  0.21129737  0.58953506  0.94341261    -0.29000
C595        C  0.27499997  0.90352990  0.95251302    -0.29300
N596        N  0.24712158  0.87892471  0.96142373     0.15700
H597        H  0.30125250  0.89459933  0.95850122     0.18300
C598        C  0.21834848  0.90267443  0.95089820    -0.29300
H599        H  0.19225216  0.89301420  0.95556726     0.18300
H600        H  0.18532078  0.59672150  0.95009044     0.18300
H601        H  0.29531235  0.50164064  0.85242295     0.18400
H602        H  0.29395023  0.59441018  0.95096773     0.18300
Zn603      Zn  0.01538268  0.75782967  0.57003868     1.49700
Zn604      Zn  0.48466056  0.83342203  0.53390795     1.49400
Zn605      Zn  0.02260041  0.73800480  0.00089013     1.49100
Zn606      Zn  0.46937172  0.70848841  0.53090946     1.49500
O607        O  0.00105303  0.75952042  0.53261414    -1.81900
O608        O  0.99444319  0.81480329  0.59269636    -0.72500
O609        O  0.47506899  0.84127354  0.99964777    -0.72300
O610        O  0.07305771  0.77013275  0.52381096    -0.71900
O611        O  0.50488199  0.87480015  0.56440934    -0.72500
O612        O  0.06242867  0.77602399  0.56812635    -0.72100
O613        O  0.02011371  0.80596972  0.98153965    -0.72700
O614        O  0.47381509  0.63986495  0.99910620    -0.72100
O615        O  0.43743442  0.82964075  0.54360346    -0.72900
O616        O  0.00942238  0.68273597  0.97533238    -0.72300
O617        O  0.42721861  0.74608885  0.53882868    -0.72700
O618        O  0.47568431  0.65516101  0.56080224    -0.72600
O619        O  0.01229216  0.68944485  0.58847501    -0.72400
C620        C  0.00030574  0.86066822  0.58628915     0.79400
C621        C  0.99543612  0.83905591  0.98088589     0.79900
C622        C  0.08154528  0.78102484  0.54804396     0.78800
C623        C  0.98931907  0.64578811  0.97704674     0.79200
C624        C  0.41841556  0.79166961  0.54550097     0.80300
C625        C  0.99504349  0.65115995  0.58146996     0.79400
Zn626      Zn  0.22665020  0.75864889  0.56594603     1.49700
Zn627      Zn  0.21795244  0.74462817  0.00462433     1.49400
Zn628      Zn  0.27263490  0.82198965  0.53363551     1.49100
Zn629      Zn  0.27660539  0.69537421  0.53316973     1.49500
O630        O  0.25037719  0.75776913  0.53218745    -1.81900
O631        O  0.18276250  0.78317147  0.55334791    -0.72500
O632        O  0.22090413  0.81350559  0.98537957    -0.72300
O633        O  0.25565084  0.87112802  0.56216923    -0.71900
O634        O  0.18050541  0.78390012  0.50818928    -0.72500
O635        O  0.23978738  0.81461734  0.59224162    -0.72100
O636        O  0.27604308  0.82746134  0.99376750    -0.72700
O637        O  0.32140358  0.71498436  0.54588903    -0.72100
O638        O  0.22190376  0.68714645  0.97648123    -0.72900
O639        O  0.31668419  0.80038295  0.54745924    -0.72300
O640        O  0.25864000  0.63333213  0.99708289    -0.72700
O641        O  0.26249312  0.64592781  0.56151559    -0.72600
O642        O  0.22437301  0.68947644  0.58559627    -0.72400
C643        C  0.16769648  0.79326632  0.53102479     0.79400
C644        C  0.24806088  0.83807484  0.98088601     0.79900
C645        C  0.24715861  0.86004438  0.58602318     0.78800
C646        C  0.33282268  0.75833426  0.55192240     0.79200
C647        C  0.23990073  0.64564101  0.97678814     0.80300
C648        C  0.24218850  0.64875472  0.58123103     0.79400
C649        C  0.38465951  0.80063603  0.55553536    -0.14200
C650        C  0.36712026  0.76004649  0.56217782    -0.29400
H651        H  0.37235605  0.83757989  0.55147366     0.14800
H652        H  0.38005873  0.72380070  0.56690771     0.15400
C653        C  0.11505611  0.79958061  0.55294242    -0.14200
C654        C  0.13310410  0.81234052  0.53167985    -0.29400
H655        H  0.12687129  0.79157405  0.57251576     0.14800
H656        H  0.12068179  0.82176484  0.51248224     0.15400
C657        C  0.31966043  0.98903477  0.92306245    -0.16300
C658        C  0.35131079  0.99005380  0.92326955     0.07800
C659        C  0.38869663  0.99149534  0.92325326     0.09600
C660        C  0.42033718  0.99263067  0.92316692    -0.17100
C661        C  0.06970577  0.98255653  0.91930256    -0.16300
C662        C  0.10139166  0.98359256  0.91928298     0.07800
C663        C  0.13881229  0.98580434  0.91946986     0.09600
C664        C  0.17046982  0.98760725  0.91981116    -0.17100
C665        C  0.24874600  0.99810408  0.74534118    -0.16300
C666        C  0.24892059  0.99515519  0.76972537     0.07800
C667        C  0.24842477  0.99233472  0.79835667     0.09600
C668        C  0.24123558  0.50030131  0.81447312    -0.17100
C669        C  0.32061169  0.00591421  0.64659199    -0.16300
C670        C  0.35226719  0.00586792  0.64668930     0.07800
C671        C  0.38965022  0.00627495  0.64692333     0.09600
C672        C  0.42128752  0.00689499  0.64723210    -0.17100
C673        C  0.07032587  0.01039642  0.64704850    -0.16300
C674        C  0.10207038  0.01028548  0.64706107     0.07800
C675        C  0.13961026  0.00984766  0.64696777     0.09600
C676        C  0.17135461  0.00935465  0.64686225    -0.17100
C677        C  0.99166306  0.99562447  0.82176054    -0.16300
C678        C  0.99217229  0.99901705  0.79748311     0.07800
C679        C  0.49431969  0.00838989  0.77144473     0.09600
C680        C  0.49179253  0.50431791  0.73801494    -0.17100
C681        C  0.54114219  0.48814090  0.15007243     0.32200
C682        C  0.96834087  0.48681181  0.14626596     0.32200
C683        C  0.52301449  0.49088103  0.17736495    -0.04000
C684        C  0.52699739  0.04434220  0.12291291    -0.04800
C685        C  0.52546981  0.44029175  0.13724521    -0.04600
C686        C  0.98665778  0.48785011  0.17398332    -0.04000
C687        C  0.99107287  0.04599919  0.12683679    -0.04700
C688        C  0.98503755  0.43917342  0.13306404    -0.04600
C689        C  0.97674505  0.49209869  0.20045342    -0.30000
N690        N  0.00932115  0.99424825  0.21008112     0.16500
C691        C  0.53282722  0.49281280  0.20416686    -0.30000
H692        H  0.56452429  0.00177264  0.20044112     0.18400
C693        C  0.98009060  0.08565374  0.11042031    -0.29000
N694        N  0.50769113  0.10860378  0.09676336     0.15200
C695        C  0.53653390  0.08457805  0.10698558    -0.29000
C696        C  0.97370663  0.40309221  0.11499057    -0.29300
N697        N  0.50990500  0.37898793  0.10886528     0.15700
H698        H  0.94735449  0.39826147  0.10847166     0.18300
C699        C  0.53733036  0.40227051  0.12010800    -0.29300
H700        H  0.56364963  0.39593277  0.11400463     0.18300
H701        H  0.56258628  0.09457163  0.10243581     0.18300
H702        H  0.95480274  0.99698372  0.20059104     0.18400
H703        H  0.95381123  0.09449435  0.10441747     0.18300
C704        C  0.71889423  0.50100484  0.14954507     0.32200
C705        C  0.78994716  0.50029528  0.14922438     0.32200
C706        C  0.73704225  0.50684192  0.17698624    -0.04000
C707        C  0.73685267  0.45246861  0.13867114    -0.04800
C708        C  0.74019016  0.05219837  0.12574654    -0.04600
C709        C  0.77307765  0.50629546  0.17693203    -0.04000
C710        C  0.77293678  0.45234171  0.13806153    -0.04700
C711        C  0.77621338  0.05161037  0.12546022    -0.04600
C712        C  0.78396509  0.50771180  0.20347120    -0.30000
N713        N  0.75580891  0.50924550  0.21921129     0.16500
C714        C  0.72713492  0.50864652  0.20340673    -0.30000
H715        H  0.70112657  0.50778457  0.21066231     0.18400
C716        C  0.78283819  0.41561412  0.11963353    -0.29000
N717        N  0.75446522  0.39199095  0.11049513     0.15200
C718        C  0.72635911  0.41465903  0.12155714    -0.29000
C719        C  0.78538051  0.09239325  0.10980800    -0.29300
N720        N  0.75638940  0.11821724  0.10115409     0.15700
H721        H  0.81127295  0.10144956  0.10422710     0.18300
C722        C  0.72872243  0.09405607  0.11082785    -0.29300
H723        H  0.70229465  0.10429190  0.10599497     0.18300
H724        H  0.70015196  0.40798750  0.11526697     0.18300
H725        H  0.81028667  0.50603746  0.21082592     0.18400
H726        H  0.80840165  0.40932510  0.11184340     0.18300
C727        C  0.53958654  0.50932684  0.42361888     0.32200
C728        C  0.96859334  0.51102771  0.42096722     0.32200
C729        C  0.52150535  0.50797780  0.39576970    -0.04000
C730        C  0.52324066  0.46412212  0.43796678    -0.04800
C731        C  0.52395690  0.04485784  0.42690260    -0.04600
C732        C  0.98577937  0.50897110  0.39315823    -0.04000
C733        C  0.98714683  0.46653428  0.43589471    -0.04700
C734        C  0.98758331  0.04568979  0.42709991    -0.04600
C735        C  0.97517640  0.50746792  0.36645801    -0.30000
N736        N  0.50283148  0.50290039  0.35336889     0.17700
C737        C  0.53145441  0.50472746  0.36928488    -0.30000
H738        H  0.55752868  0.50332939  0.36212333     0.18400
C739        C  0.97724788  0.42700170  0.45181723    -0.29000
N740        N  0.50660243  0.39867656  0.46245451     0.15200
C741        C  0.53456021  0.42225437  0.45301833    -0.29000
C742        C  0.97669232  0.08597011  0.44287776    -0.29300
N743        N  0.50507975  0.10825878  0.45326051     0.15700
H744        H  0.95046746  0.09530859  0.44832978     0.18300
C745        C  0.53378170  0.08380847  0.44387759    -0.29300
H746        H  0.55974169  0.09149437  0.45039703     0.18300
H747        H  0.56091054  0.41118953  0.45774458     0.18300
H748        H  0.94890647  0.50731858  0.35901570     0.18400
H749        H  0.95110137  0.41804100  0.45662343     0.18300
C750        C  0.71875073  0.50211712  0.42227438     0.32200
C751        C  0.79008951  0.50043216  0.42280258     0.32200
C752        C  0.73606436  0.49791352  0.39471409    -0.04000
C753        C  0.73657940  0.03830175  0.42757780    -0.04800
C754        C  0.73707669  0.45804696  0.43800844    -0.04600
C755        C  0.77216191  0.49702860  0.39501904    -0.04000
C756        C  0.77251154  0.04046690  0.42794849    -0.04700
C757        C  0.77317260  0.45748593  0.43853846    -0.04600
C758        C  0.78234009  0.49691567  0.36863011    -0.30000
N759        N  0.75721342  0.99575741  0.34329690     0.16500
C760        C  0.72548736  0.49833788  0.36809940    -0.30000
H761        H  0.70261644  0.99280220  0.35080016     0.18400
C762        C  0.78105053  0.08062833  0.44435764    -0.29000
N763        N  0.75166917  0.10240378  0.45397339     0.15200
C764        C  0.72446106  0.07665437  0.44422042    -0.29000
C765        C  0.78407184  0.41761397  0.45503863    -0.29300
N766        N  0.75599023  0.39348318  0.46384827     0.15700
H767        H  0.81036022  0.40669969  0.46009627     0.18300
C768        C  0.72730358  0.41758005  0.45350307    -0.29300
H769        H  0.70121452  0.40699053  0.45744863     0.18300
H770        H  0.69804586  0.08379792  0.44985678     0.18300
H771        H  0.81156969  0.99833636  0.35310393     0.18400
H772        H  0.80672465  0.09115172  0.45029815     0.18300
Zn773      Zn  0.53390694  0.24843346  0.05689068     1.49700
Zn774      Zn  0.97544088  0.31108057  0.02785622     1.49400
Zn775      Zn  0.52367118  0.24719846  0.49537155     1.49100
Zn776      Zn  0.97560126  0.18443066  0.02869325     1.49500
O777        O  0.50195550  0.25488861  0.02825011    -1.81900
O778        O  0.52745217  0.30324750  0.08657737    -0.72500
O779        O  0.98319322  0.35919339  0.49788782    -0.72300
O780        O  0.56017658  0.27607418  0.99245257    -0.71900
O781        O  0.97663668  0.34507826  0.06485537    -0.72500
O782        O  0.57386315  0.26741622  0.03653598    -0.72100
O783        O  0.52552232  0.31666579  0.47661937    -0.72700
O784        O  0.99986844  0.13547325  0.49731533    -0.72100
O785        O  0.93077850  0.29006798  0.01592721    -0.72900
O786        O  0.51036633  0.19268236  0.46814421    -0.72300
O787        O  0.92977723  0.20443384  0.01753760    -0.72700
O788        O  0.97962337  0.15155420  0.06515646    -0.72600
O789        O  0.53310173  0.17691945  0.07423423    -0.72400
C790        C  0.51090493  0.34607086  0.08575228     0.79400
C791        C  0.50628053  0.35609391  0.48054878     0.79900
C792        C  0.58038734  0.28093063  0.01242673     0.78800
C793        C  0.50422495  0.14658428  0.47391231     0.79200
C794        C  0.91636893  0.24781163  0.01171837     0.80300
C795        C  0.50636278  0.15086135  0.07809649     0.79400
Zn796      Zn  0.72428709  0.26157612  0.06442278     1.49700
Zn797      Zn  0.73532937  0.24293512  0.49186712     1.49400
Zn798      Zn  0.76471648  0.33343183  0.03044924     1.49100
Zn799      Zn  0.77852969  0.20677892  0.03086715     1.49500
O800        O  0.74851854  0.26420323  0.03157037    -1.81900
O801        O  0.67845389  0.28452909  0.05310286    -0.72500
O802        O  0.73757663  0.31204942  0.47438163    -0.72300
O803        O  0.76528165  0.36972507  0.06600413    -0.71900
O804        O  0.68131870  0.28875247  0.00798704    -0.72500
O805        O  0.73776310  0.31535505  0.09135828    -0.72100
O806        O  0.77576893  0.34675391  0.50166714    -0.72700
O807        O  0.82003998  0.23996994  0.02092904    -0.72100
O808        O  0.75614447  0.18699867  0.46847219    -0.72900
O809        O  0.81087762  0.32484625  0.01842919    -0.72300
O810        O  0.74354691  0.12860607  0.49843783    -0.72700
O811        O  0.77963756  0.16669158  0.06640544    -0.72600
O812        O  0.72865397  0.19116213  0.08218876    -0.72400
C813        C  0.66597395  0.29651578  0.03007463     0.79400
C814        C  0.75645805  0.34895637  0.48070406     0.79900
C815        C  0.75299696  0.35712664  0.08847370     0.78800
C816        C  0.82926933  0.28487676  0.01508545     0.79200
C817        C  0.75017723  0.14088893  0.47433857     0.80300
C818        C  0.75491921  0.16064755  0.08259809     0.79400
C819        C  0.88209002  0.24889220  0.00128142    -0.14200
C820        C  0.86310523  0.29090998  0.00524699    -0.29400
H821        H  0.87044268  0.21219454  0.99786127     0.14800
H822        H  0.87438076  0.32805929  0.00788138     0.15400
C823        C  0.61286917  0.30260787  0.00751553    -0.14200
C824        C  0.63140446  0.31602214  0.02884779    -0.29400
H825        H  0.62421701  0.29538883  0.98799067     0.14800
H826        H  0.61930400  0.32473895  0.04795291     0.15400
C827        C  0.82911512  0.50111394  0.42279692    -0.16300
C828        C  0.86070269  0.50373511  0.42235162     0.07800
C829        C  0.89799382  0.50749748  0.42168303     0.09600
C830        C  0.92957918  0.51012913  0.42118853    -0.17100
C831        C  0.57865911  0.50867835  0.42358568    -0.16300
C832        C  0.61039087  0.50726615  0.42321406     0.07800
C833        C  0.64790862  0.50523153  0.42267498     0.09600
C834        C  0.67964577  0.50356386  0.42232285    -0.17100
C835        C  0.75605145  0.50776863  0.24745383    -0.16300
C836        C  0.75550780  0.50582220  0.27172034     0.07800
C837        C  0.75443593  0.50290064  0.30011949     0.09600
C838        C  0.75779076  0.99626012  0.31487983    -0.17100
C839        C  0.82886251  0.49893701  0.14886443    -0.16300
C840        C  0.86047904  0.49647820  0.14821340     0.07800
C841        C  0.89780254  0.49291671  0.14729907     0.09600
C842        C  0.92941201  0.48988786  0.14661551    -0.17100
C843        C  0.57995814  0.49023313  0.15066452    -0.16300
C844        C  0.61142361  0.49349064  0.15056914     0.07800
C845        C  0.64854727  0.49759401  0.15017278     0.09600
C846        C  0.68004066  0.50022961  0.14980754    -0.17100
C847        C  0.50250992  0.49969012  0.32504545    -0.16300
C848        C  0.50257781  0.49744776  0.30066949     0.07800
C849        C  0.00495023  0.49929320  0.26920730     0.09600
C850        C  0.00879383  0.99397689  0.23839344    -0.17100
C851        C  0.52999031  0.49878957  0.64033021     0.32200
C852        C  0.95865816  0.49963394  0.63830303     0.32200
C853        C  0.51187784  0.50161653  0.66770979    -0.04000
C854        C  0.51219649  0.05365202  0.63344658    -0.04800
C855        C  0.51284661  0.45274694  0.62697664    -0.04600
C856        C  0.97608533  0.50056366  0.66645145    -0.04000
C857        C  0.97582677  0.05347926  0.63206380    -0.04700
C858        C  0.97635061  0.45275402  0.62531881    -0.04600
C859        C  0.96535208  0.50342687  0.69277882    -0.30000
N860        N  0.99536963  0.00582651  0.71642765     0.16500
C861        C  0.52153937  0.50224651  0.69460673    -0.30000
H862        H  0.54986676  0.01347092  0.71103543     0.18400
C863        C  0.96440253  0.09014475  0.61366128    -0.29000
N864        N  0.49223256  0.11428971  0.60544666     0.15200
C865        C  0.52123689  0.09278063  0.61678145    -0.29000
C866        C  0.96603442  0.41465914  0.60816627    -0.29300
N867        N  0.49549463  0.38939528  0.60076974     0.15700
H868        H  0.93992605  0.40767146  0.60173956     0.18300
C869        C  0.52362188  0.41182671  0.61146141    -0.29300
H870        H  0.54990594  0.40140920  0.60672962     0.18300
H871        H  0.54712051  0.10269343  0.61182903     0.18300
H872        H  0.94094923  0.00412425  0.70685093     0.18400
H873        H  0.93826673  0.09641263  0.60641755     0.18300
C874        C  0.70882731  0.49261318  0.63836836     0.32200
C875        C  0.78000148  0.49326543  0.63925040     0.32200
C876        C  0.72645574  0.49239308  0.66637391    -0.04000
C877        C  0.72765712  0.44708703  0.62445667    -0.04800
C878        C  0.72756849  0.04952260  0.63498469    -0.04600
C879        C  0.76248243  0.49275482  0.66690986    -0.04000
C880        C  0.76367673  0.44775107  0.62486342    -0.04700
C881        C  0.76360457  0.04794809  0.63513499    -0.04600
C882        C  0.77266153  0.49319427  0.69370982    -0.30000
N883        N  0.74414690  0.49305645  0.70910473     0.16500
C884        C  0.71591264  0.49259282  0.69273694    -0.30000
H885        H  0.68966898  0.49267694  0.69952938     0.18400
C886        C  0.77532722  0.40786840  0.60900849    -0.29000
N887        N  0.74785316  0.38251374  0.59926217     0.15200
C888        C  0.71869688  0.40607277  0.60859703    -0.29000
C889        C  0.77365223  0.08476865  0.61735396    -0.29300
N890        N  0.74524845  0.10986807  0.60723527     0.15700
H891        H  0.79959480  0.09048219  0.61079839     0.18300
C892        C  0.71701944  0.08846636  0.61763849    -0.29300
H893        H  0.69087251  0.09723180  0.61108014     0.18300
H894        H  0.69283870  0.39572067  0.60314761     0.18300
H895        H  0.79878525  0.49382392  0.70143530     0.18400
H896        H  0.80181206  0.39904599  0.60415114     0.18300
C897        C  0.52637046  0.50658450  0.91402642     0.32200
C898        C  0.95483497  0.50327771  0.91370676     0.32200
C899        C  0.50817684  0.50696823  0.88628310    -0.04000
C900        C  0.51062038  0.46022673  0.92776662    -0.04800
C901        C  0.51184540  0.03976573  0.93687627    -0.04600
C902        C  0.97237032  0.50256378  0.88604068    -0.04000
C903        C  0.97298740  0.45792207  0.92828964    -0.04700
C904        C  0.97806237  0.03260987  0.93435861    -0.04600
C905        C  0.96200596  0.50465538  0.85928614    -0.30000
N906        N  0.48947206  0.50695623  0.84382633     0.17700
C907        C  0.51809071  0.50748641  0.85978094    -0.30000
H908        H  0.54413540  0.50782108  0.85261709     0.18400
C909        C  0.96283792  0.41936280  0.94497893    -0.29000
N910        N  0.49517845  0.39674475  0.95418710     0.15200
C911        C  0.52252851  0.42175860  0.94477870    -0.29000
C912        C  0.96874261  0.07322605  0.95035069    -0.29300
N913        N  0.49278483  0.10563976  0.96116320     0.15700
H914        H  0.94292334  0.08465869  0.95597691     0.18300
C915        C  0.52146536  0.08176920  0.95148602    -0.29300
H916        H  0.54749528  0.09295142  0.95577000     0.18300
H917        H  0.54893186  0.41415423  0.95095103     0.18300
H918        H  0.93577431  0.50625239  0.85168258     0.18400
H919        H  0.93667845  0.41087114  0.95000583     0.18300
C920        C  0.70517357  0.51065550  0.91311786     0.32200
C921        C  0.77631839  0.50714276  0.91354211     0.32200
C922        C  0.72240993  0.50482579  0.88547298    -0.04000
C923        C  0.72665654  0.04722090  0.93885325    -0.04800
C924        C  0.72298940  0.46687848  0.92935166    -0.04600
C925        C  0.75845288  0.50311164  0.88576651    -0.04000
C926        C  0.76270986  0.04600671  0.93893684    -0.04700
C927        C  0.75898775  0.46510018  0.92956318    -0.04600
C928        C  0.76871187  0.49949648  0.85938630    -0.30000
N929        N  0.74326626  0.00219051  0.85393879     0.16500
C930        C  0.71191466  0.50220106  0.85880117    -0.30000
H931        H  0.68885900  0.00308696  0.86265717     0.18400
C932        C  0.77312171  0.08614407  0.95476410    -0.29000
N933        N  0.74490706  0.11247388  0.96377178     0.15200
C934        C  0.71642101  0.08923438  0.95409730    -0.29000
C935        C  0.76955668  0.42612569  0.94675016    -0.29300
N936        N  0.74127418  0.40413335  0.95662726     0.15700
H937        H  0.79574886  0.41577432  0.95245657     0.18300
C938        C  0.71279868  0.42883728  0.94638169    -0.29300
H939        H  0.68667306  0.42097857  0.95177278     0.18300
H940        H  0.69030626  0.10065791  0.95876484     0.18300
H941        H  0.79797936  0.00083555  0.86276918     0.18400
H942        H  0.79940331  0.09508046  0.95975558     0.18300
Zn943      Zn  0.52347557  0.24714455  0.56260772     1.49700
Zn944      Zn  0.96983401  0.30896628  0.52625021     1.49400
Zn945      Zn  0.51351365  0.25541610  0.99071952     1.49100
Zn946      Zn  0.97900364  0.18233043  0.52533443     1.49500
O947        O  0.49931562  0.24760702  0.52880407    -1.81900
O948        O  0.52079239  0.31582821  0.58168221    -0.72500
O949        O  0.98962670  0.36270493  0.99950331    -0.72300
O950        O  0.56772237  0.22227259  0.50809342    -0.71900
O951        O  0.96989087  0.34623030  0.56234564    -0.72500
O952        O  0.56927251  0.22468794  0.55324243    -0.72100
O953        O  0.48985478  0.31207401  0.96848419    -0.72700
O954        O  0.98900288  0.13192115  0.00112742    -0.72100
O955        O  0.92605600  0.28449094  0.51305674    -0.72900
O956        O  0.51080955  0.18722674  0.97229762    -0.72300
O957        O  0.93424020  0.19939383  0.51061241    -0.72700
O958        O  0.97661799  0.14367355  0.56099050    -0.72600
O959        O  0.51004542  0.19132068  0.58785367    -0.72400
C960        C  0.49597607  0.34879674  0.58134111     0.79400
C961        C  0.49684894  0.35784230  0.97446856     0.79900
C962        C  0.58240338  0.21358680  0.53074645     0.78800
C963        C  0.49260627  0.14966613  0.97834585     0.79200
C964        C  0.91646232  0.24023212  0.50653783     0.80300
C965        C  0.49221453  0.15198939  0.58450115     0.79400
Zn966      Zn  0.72075522  0.24432246  0.55797556     1.49700
Zn967      Zn  0.72576849  0.26383353  0.99708205     1.49400
Zn968      Zn  0.78195234  0.29308402  0.53156305     1.49100
Zn969      Zn  0.76480316  0.16928104  0.52866313     1.49500
O970        O  0.75080431  0.24030788  0.52895082    -1.81900
O971        O  0.67882986  0.22935560  0.53848219    -0.72500
O972        O  0.74087042  0.31879417  0.97095702    -0.72300
O973        O  0.77704372  0.33145829  0.56741306    -0.71900
O974        O  0.68832093  0.22453771  0.49403443    -0.72500
O975        O  0.72291561  0.31379721  0.57650962    -0.72100
O976        O  0.74320939  0.37935027  0.00180056    -0.72700
O977        O  0.81192435  0.17105671  0.51876905    -0.72100
O978        O  0.72466881  0.19367927  0.97834081    -0.72900
O979        O  0.82422300  0.25392294  0.52362895    -0.72300
O980        O  0.76838381  0.15646093  0.00052749    -0.72700
O981        O  0.76179716  0.13275132  0.56407130    -0.72600
O982        O  0.72778836  0.18695440  0.58605003    -0.72400
C983        C  0.66960238  0.21925275  0.51431412     0.79400
C984        C  0.74162515  0.36587073  0.97724592     0.79900
C985        C  0.74937237  0.34068075  0.58036904     0.78800
C986        C  0.83187687  0.20786708  0.51685729     0.79200
C987        C  0.74576515  0.15587363  0.98170184     0.80300
C988        C  0.74503512  0.14485642  0.58495326     0.79400
C989        C  0.88212656  0.23579514  0.49668384    -0.14200
C990        C  0.86517654  0.19691020  0.50629336    -0.29400
H991        H  0.86854086  0.27089776  0.49048334     0.14800
H992        H  0.87795833  0.16103510  0.51219466     0.15400
C993        C  0.61675673  0.19334111  0.53099806    -0.14200
C994        C  0.63554438  0.20243453  0.50964226    -0.29400
H995        H  0.62859643  0.18516105  0.55062675     0.14800
H996        H  0.62412979  0.20926912  0.48974495     0.15400
C997        C  0.81526529  0.50564831  0.91368167    -0.16300
C998        C  0.84690963  0.50505466  0.91362981     0.07800
C999        C  0.88427559  0.50453012  0.91351880     0.09600
C1000       C  0.91591394  0.50400916  0.91348215    -0.17100
C1001       C  0.56538075  0.50792028  0.91407020    -0.16300
C1002       C  0.59703900  0.50931650  0.91388034     0.07800
C1003       C  0.63445820  0.51085483  0.91349808     0.09600
C1004       C  0.66613369  0.51156999  0.91318550    -0.17100
C1005       C  0.74364770  0.49385861  0.73748265    -0.16300
C1006       C  0.74264004  0.49466718  0.76187253     0.07800
C1007       C  0.74122928  0.49583736  0.79048718     0.09600
C1008       C  0.74297807  0.00243279  0.82539524    -0.17100
C1009       C  0.81899787  0.49451043  0.63930822    -0.16300
C1010       C  0.85061539  0.49645769  0.63889628     0.07800
C1011       C  0.88797336  0.49887105  0.63826246     0.09600
C1012       C  0.91961958  0.50022605  0.63791952    -0.17100
C1013       C  0.56902633  0.49719719  0.64066516    -0.16300
C1014       C  0.60071374  0.49568866  0.64008373     0.07800
C1015       C  0.63814235  0.49394485  0.63904171     0.09600
C1016       C  0.66981974  0.49282908  0.63831828    -0.17100
C1017       C  0.48927097  0.50620067  0.81544580    -0.16300
C1018       C  0.48971677  0.50545178  0.79104159     0.07800
C1019       C  0.99204460  0.50735572  0.76215739     0.09600
C1020       C  0.99483505  0.00407271  0.74471846    -0.17100
C1021       C  0.54547110  0.00015110  0.13847117     0.32200
C1022       C  0.97388421  0.00013974  0.13959463     0.32200
C1023       C  0.52794878  0.00317467  0.16608416    -0.04000
C1024       C  0.52254356  0.53166467  0.13432712    -0.04800
C1025       C  0.52882148  0.95294772  0.12584537    -0.04600
C1026       C  0.99157569  0.99731693  0.16748989    -0.04000
C1027       C  0.98572602  0.53002243  0.13131873    -0.04700
C1028       C  0.99166479  0.95530188  0.12490755    -0.04600
C1029       C  0.98103265  0.99610622  0.19378430    -0.30000
N1030       N  0.00535944  0.49243694  0.21642514     0.16500
C1031       C  0.53830420  0.00302240  0.19282050    -0.30000
H1032       H  0.55886733  0.49343731  0.21209203     0.18400
C1033       C  0.97489041  0.57026683  0.11513857    -0.29000
N1034       N  0.50368041  0.59387665  0.10702354     0.15200
C1035       C  0.53231218  0.57131944  0.11822828    -0.29000
C1036       C  0.98111442  0.91555797  0.10918580    -0.29300
N1037       N  0.51148334  0.88564143  0.10268098     0.15700
H1038       H  0.95482517  0.90698334  0.10402248     0.18300
C1039       C  0.53972128  0.90995074  0.11178394    -0.29300
H1040       H  0.56591595  0.89915523  0.10700984     0.18300
H1041       H  0.55839489  0.58143891  0.11389038     0.18300
H1042       H  0.95066684  0.49511516  0.20756543     0.18400
H1043       H  0.94862064  0.58102141  0.10990315     0.18300
C1044       C  0.72376029  0.00542569  0.13864478     0.32200
C1045       C  0.79487797  0.00463568  0.13841665     0.32200
C1046       C  0.74195345  0.00277578  0.16636738    -0.04000
C1047       C  0.74165560  0.96085646  0.12365683    -0.04800
C1048       C  0.73524193  0.54305765  0.13276806    -0.04600
C1049       C  0.77797074  0.00233799  0.16637711    -0.04000
C1050       C  0.77762535  0.96069064  0.12325157    -0.04700
C1051       C  0.77128258  0.54292693  0.13286982    -0.04600
C1052       C  0.78873949  0.00010834  0.19307573    -0.30000
N1053       N  0.76058495  0.99925468  0.20888120     0.16500
C1054       C  0.73199229  0.00082905  0.19286121    -0.30000
H1055       H  0.70591004  0.00084472  0.19997430     0.18400
C1056       C  0.78805373  0.92054101  0.10701043    -0.29000
N1057       N  0.75974925  0.89597182  0.09825364     0.15200
C1058       C  0.73139974  0.91997539  0.10840735    -0.29000
C1059       C  0.78069631  0.58105978  0.11572626    -0.29300
N1060       N  0.75175144  0.60366115  0.10507351     0.15700
H1061       H  0.80664654  0.59038871  0.11050232     0.18300
C1062       C  0.72389667  0.58069991  0.11505338    -0.29300
H1063       H  0.69754526  0.59002671  0.10941014     0.18300
H1064       H  0.70520333  0.90933294  0.10429880     0.18300
H1065       H  0.81505688  0.99944193  0.20045784     0.18400
H1066       H  0.81418181  0.91001663  0.10189786     0.18300
C1067       C  0.54187028  0.99790582  0.41364928     0.32200
C1068       C  0.97036240  0.00005367  0.41370631     0.32200
C1069       C  0.52462012  0.99789664  0.38548342    -0.04000
C1070       C  0.52412271  0.95329017  0.42754306    -0.04800
C1071       C  0.52108100  0.55572127  0.43703281    -0.04600
C1072       C  0.98766559  0.99816187  0.38606683    -0.04000
C1073       C  0.98836030  0.95485942  0.42842782    -0.04700
C1074       C  0.98557798  0.55727738  0.43420103    -0.04600
C1075       C  0.97712314  0.99743469  0.35942346    -0.30000
N1076       N  0.50736520  0.99781063  0.34259560     0.17700
C1077       C  0.53545677  0.99690774  0.35916778    -0.30000
H1078       H  0.56180018  0.99585898  0.35254934     0.18400
C1079       C  0.97811849  0.91740281  0.44562515    -0.29000
N1080       N  0.50546576  0.89426205  0.45561161     0.15200
C1081       C  0.53407623  0.91483282  0.44534830    -0.29000
C1082       C  0.97477737  0.59739293  0.45023625    -0.29300
N1083       N  0.50138173  0.62046445  0.46231432     0.15700
H1084       H  0.94857167  0.60636196  0.45578835     0.18300
C1085       C  0.53035111  0.59669747  0.45279474    -0.29300
H1086       H  0.55632497  0.60665649  0.45823419     0.18300
H1087       H  0.56007896  0.90552310  0.45208963     0.18300
H1088       H  0.95089020  0.99806927  0.35188257     0.18400
H1089       H  0.95205798  0.91086102  0.45160801     0.18300
C1090       C  0.72106163  0.99228298  0.41304912     0.32200
C1091       C  0.79211313  0.99603826  0.41423568     0.32200
C1092       C  0.73870001  0.99381670  0.38545181    -0.04000
C1093       C  0.73608098  0.54904839  0.43440788    -0.04800
C1094       C  0.74072433  0.94718431  0.42693153    -0.04600
C1095       C  0.77469045  0.99556935  0.38612945    -0.04000
C1096       C  0.77214037  0.54787696  0.43475665    -0.04700
C1097       C  0.77669249  0.94941085  0.42792302    -0.04600
C1098       C  0.78533257  0.99679491  0.35979147    -0.30000
N1099       N  0.75382464  0.49762317  0.35258641     0.16500
C1100       C  0.72866855  0.99396195  0.35860884    -0.30000
H1101       H  0.69924336  0.50055292  0.36056309     0.18400
C1102       C  0.78244418  0.58710592  0.45097575    -0.29000
N1103       N  0.75406260  0.61271673  0.45985296     0.15200
C1104       C  0.72566159  0.59003858  0.44989453    -0.29000
C1105       C  0.78853863  0.91184166  0.44565615    -0.29300
N1106       N  0.76119809  0.88593915  0.45440808     0.15700
H1107       H  0.81475236  0.90555234  0.45271178     0.18300
C1108       C  0.73206769  0.90717609  0.44313764    -0.29300
H1109       H  0.70627654  0.89694866  0.44817078     0.18300
H1110       H  0.69955919  0.60005504  0.45534534     0.18300
H1111       H  0.80843745  0.49780915  0.36159164     0.18400
H1112       H  0.80855947  0.59471329  0.45713960     0.18300
Zn1113     Zn  0.52586542  0.73486630  0.06810464     1.49700
Zn1114     Zn  0.97205184  0.80122195  0.03394619     1.49400
Zn1115     Zn  0.52852128  0.75821650  0.50367958     1.49100
Zn1116     Zn  0.97519239  0.67524522  0.03430182     1.49500
O1117       O  0.50102792  0.73903495  0.03423760    -1.81900
O1118       O  0.52837898  0.80300847  0.08837865    -0.72500
O1119       O  0.98725628  0.86578025  0.49740939    -0.72300
O1120       O  0.57042018  0.71649499  0.01049407    -0.71900
O1121       O  0.98792692  0.85046358  0.06189198    -0.72500
O1122       O  0.56988469  0.71110900  0.05558527    -0.72100
O1123       O  0.52197335  0.81653119  0.47633832    -0.72700
O1124       O  0.97515624  0.66968323  0.49345548    -0.72100
O1125       O  0.92790106  0.78237417  0.04745174    -0.72900
O1126       O  0.52636368  0.68953607  0.48459698    -0.72300
O1127       O  0.93170225  0.69688874  0.04862835    -0.72700
O1128       O  0.99299052  0.62419154  0.06208129    -0.72600
O1129       O  0.51225413  0.67833212  0.09374924    -0.72400
C1130       C  0.51046618  0.84387182  0.08410326     0.79400
C1131       C  0.50503255  0.85882566  0.47765985     0.79900
C1132       C  0.58428279  0.70477805  0.03300001     0.78800
C1133       C  0.50018292  0.66198004  0.48135403     0.79200
C1134       C  0.91644232  0.73927453  0.05367157     0.80300
C1135       C  0.50337227  0.63365469  0.08717550     0.79400
Zn1136     Zn  0.73869849  0.74602933  0.06919188     1.49700
Zn1137     Zn  0.72864287  0.75473066  0.49758145     1.49400
Zn1138     Zn  0.78208527  0.79720280  0.02990998     1.49100
Zn1139     Zn  0.76382493  0.67395246  0.03184754     1.49500
O1140       O  0.75077891  0.74516980  0.03179384    -1.81900
O1141       O  0.69177310  0.72876516  0.06747310    -0.72500
O1142       O  0.74301166  0.80928417  0.47209279    -0.72300
O1143       O  0.77675109  0.85111836  0.05955357    -0.71900
O1144       O  0.67807313  0.73520737  0.02333870    -0.72500
O1145       O  0.74227751  0.81377227  0.08786777    -0.72100
O1146       O  0.77669299  0.85617455  0.49771638    -0.72700
O1147       O  0.81082123  0.67437768  0.04350254    -0.72100
O1148       O  0.73006286  0.68681524  0.47871458    -0.72900
O1149       O  0.82366153  0.75708041  0.03931599    -0.72300
O1150       O  0.77781064  0.65313171  0.49736020    -0.72700
O1151       O  0.74185846  0.63281476  0.06100627    -0.72600
O1152       O  0.76001462  0.68773609  0.09126519    -0.72400
C1153       C  0.67134177  0.72387048  0.04771202     0.79400
C1154       C  0.76115842  0.84823941  0.47538847     0.79900
C1155       C  0.75961586  0.85181086  0.08117067     0.78800
C1156       C  0.83091943  0.71094013  0.04636361     0.79200
C1157       C  0.75404738  0.65272823  0.47940178     0.80300
C1158       C  0.75099692  0.64292264  0.08508454     0.79400
C1159       C  0.88302460  0.73846121  0.06496407    -0.14200
C1160       C  0.86410765  0.69934422  0.05796115    -0.29400
H1161       H  0.87104433  0.77521609  0.06990126     0.14800
H1162       H  0.87537610  0.66173172  0.05396754     0.15400
C1163       C  0.61946750  0.68863473  0.03295145    -0.14200
C1164       C  0.63852544  0.70449427  0.05340834    -0.29400
H1165       H  0.63074309  0.67951010  0.01356185     0.14800
H1166       H  0.62790005  0.71297777  0.07308624     0.15400
C1167       C  0.83094812  0.99805726  0.41471202    -0.16300
C1168       C  0.86253131  0.99932349  0.41457439     0.07800
C1169       C  0.89983633  0.00037359  0.41412471     0.09600
C1170       C  0.93144292  0.00073450  0.41375559    -0.17100
C1171       C  0.58098491  0.99599096  0.41418292    -0.16300
C1172       C  0.61273179  0.99421830  0.41395170     0.07800
C1173       C  0.65026066  0.99228525  0.41338862     0.09600
C1174       C  0.68199786  0.99134211  0.41297594    -0.17100
C1175       C  0.76067334  0.99797614  0.23731368    -0.16300
C1176       C  0.76000815  0.99721390  0.26175694     0.07800
C1177       C  0.75874378  0.99665643  0.29044797     0.09600
C1178       C  0.75383674  0.50031532  0.32436881    -0.17100
C1179       C  0.83390558  0.00390433  0.13837550    -0.16300
C1180       C  0.86562015  0.00309419  0.13856625     0.07800
C1181       C  0.90310714  0.00212489  0.13886552     0.09600
C1182       C  0.93482358  0.00130196  0.13914329    -0.17100
C1183       C  0.58437263  0.00046359  0.13871112    -0.16300
C1184       C  0.61596803  0.00174022  0.13873085     0.07800
C1185       C  0.65326460  0.00368194  0.13868619     0.09600
C1186       C  0.68485504  0.00506128  0.13864631    -0.17100
C1187       C  0.50797671  0.99814305  0.31419828    -0.16300
C1188       C  0.50865301  0.99884453  0.28978071     0.07800
C1189       C  0.00770053  0.99415196  0.26272369     0.09600
C1190       C  0.00550822  0.49628960  0.24480038    -0.17100
C1191       C  0.53132466  0.01003262  0.64893565     0.32200
C1192       C  0.96004983  0.00711728  0.64582566     0.32200
C1193       C  0.51360774  0.01262606  0.67649437    -0.04000
C1194       C  0.51242963  0.54398328  0.62500064    -0.04800
C1195       C  0.51536748  0.96259026  0.63611270    -0.04600
C1196       C  0.97768070  0.00723739  0.67379014    -0.04000
C1197       C  0.97628296  0.54347473  0.62375169    -0.04700
C1198       C  0.97925744  0.96242564  0.63208520    -0.04600
C1199       C  0.96714385  0.00561206  0.70008283    -0.30000
N1200       N  0.99348325  0.50359765  0.70930778     0.16500
C1201       C  0.52371941  0.01373781  0.70328989    -0.30000
H1202       H  0.54752900  0.50112554  0.70264488     0.18400
C1203       C  0.96617412  0.58380651  0.60723744    -0.29000
N1204       N  0.49471768  0.60901316  0.59898574     0.15200
C1205       C  0.52294668  0.58449720  0.60982378    -0.29000
C1206       C  0.97021417  0.92227882  0.61590503    -0.29300
N1207       N  0.49948432  0.89919655  0.60945607     0.15700
H1208       H  0.94438117  0.91208555  0.61018968     0.18300
C1209       C  0.52698921  0.92413018  0.61930311    -0.29300
H1210       H  0.55323471  0.91701081  0.61323741     0.18300
H1211       H  0.54924902  0.59449111  0.60619808     0.18300
H1212       H  0.93903724  0.50542517  0.69942556     0.18400
H1213       H  0.94013931  0.59493450  0.60156686     0.18300
C1214       C  0.71038925  0.00352041  0.64806551     0.32200
C1215       C  0.78157475  0.00124855  0.64864668     0.32200
C1216       C  0.72816748  0.00154043  0.67607656    -0.04000
C1217       C  0.72821198  0.95786328  0.63354795    -0.04800
C1218       C  0.72516493  0.53876631  0.62480326    -0.04600
C1219       C  0.76421327  0.00039789  0.67648475    -0.04000
C1220       C  0.76425509  0.95707744  0.63375039    -0.04700
C1221       C  0.76116360  0.53853508  0.62517380    -0.04600
C1222       C  0.77449432  0.00033443  0.70335885    -0.30000
N1223       N  0.74605872  0.00137055  0.71895016     0.16500
C1224       C  0.71776712  0.00216183  0.70254989    -0.30000
H1225       H  0.69153440  0.00360018  0.70937722     0.18400
C1226       C  0.77491871  0.91870219  0.61649271    -0.29000
N1227       N  0.74683465  0.89538822  0.60640631     0.15200
C1228       C  0.71823203  0.91896745  0.61654222    -0.29000
C1229       C  0.77076425  0.57837562  0.60935219    -0.29300
N1230       N  0.74209750  0.60359080  0.59982358     0.15700
H1231       H  0.79681698  0.58750364  0.60437582     0.18300
C1232       C  0.71402209  0.58004239  0.60914062    -0.29300
H1233       H  0.68775329  0.59029490  0.60367885     0.18300
H1234       H  0.69213763  0.91050484  0.61068251     0.18300
H1235       H  0.80068812  0.00006280  0.71098427     0.18400
H1236       H  0.80108882  0.90974358  0.61081469     0.18300
C1237       C  0.53047337  0.99423464  0.92317554     0.32200
C1238       C  0.95934474  0.98887032  0.92053631     0.32200
C1239       C  0.51243093  0.99393058  0.89530881    -0.04000
C1240       C  0.51433255  0.94828857  0.93719988    -0.04800
C1241       C  0.50759645  0.55126768  0.92813583    -0.04600
C1242       C  0.97576636  0.98805928  0.89248142    -0.04000
C1243       C  0.97701522  0.94219922  0.93422864    -0.04700
C1244       C  0.97162615  0.54870349  0.92768420    -0.04600
C1245       C  0.96443054  0.99174046  0.86605603    -0.30000
N1246       N  0.49373897  0.99643582  0.85276303     0.17700
C1247       C  0.52234734  0.99579745  0.86878889    -0.30000
H1248       H  0.54837991  0.99747904  0.86168196     0.18400
C1249       C  0.96682804  0.90490515  0.95157470    -0.29000
N1250       N  0.49794588  0.88392845  0.96290538     0.15200
C1251       C  0.52574688  0.90759348  0.95308157    -0.29000
C1252       C  0.96073888  0.58570624  0.94565286    -0.29300
N1253       N  0.48878398  0.61126502  0.95615231     0.15700
H1254       H  0.93466890  0.59307085  0.95209789     0.18300
C1255       C  0.51733018  0.58979305  0.94501760    -0.29300
H1256       H  0.54342068  0.59876469  0.95058026     0.18300
H1257       H  0.55212580  0.89783515  0.95837553     0.18300
H1258       H  0.93800139  0.99536481  0.85905446     0.18400
H1259       H  0.94078109  0.89872141  0.95788628     0.18300
C1260       C  0.70927475  0.00188847  0.92460210     0.32200
C1261       C  0.78045142  0.00041052  0.92446397     0.32200
C1262       C  0.72612903  0.00216923  0.89662801    -0.04000
C1263       C  0.72290448  0.55801581  0.92475498    -0.04800
C1264       C  0.72788071  0.95545326  0.93828496    -0.04600
C1265       C  0.76213846  0.00145462  0.89660974    -0.04000
C1266       C  0.75904291  0.55587635  0.92504984    -0.04700
C1267       C  0.76384831  0.95491863  0.93823005    -0.04600
C1268       C  0.77192135  0.00144082  0.86996554    -0.30000
N1269       N  0.74026577  0.49897040  0.84324400     0.16500
C1270       C  0.71521881  0.00259542  0.86991448    -0.30000
H1271       H  0.68567614  0.50333095  0.85124466     0.18400
C1272       C  0.76970047  0.59246322  0.94297516    -0.29000
N1273       N  0.74172723  0.61807300  0.95268481     0.15200
C1274       C  0.71309608  0.59698279  0.94204663    -0.29000
C1275       C  0.77530528  0.91370663  0.95359501    -0.29300
N1276       N  0.74764775  0.88884136  0.96273472     0.15700
H1277       H  0.80172542  0.90368112  0.95854188     0.18300
C1278       C  0.71865859  0.91398023  0.95346541    -0.29300
H1279       H  0.69268254  0.90426806  0.95850540     0.18300
H1280       H  0.68724350  0.60543303  0.94870816     0.18300
H1281       H  0.79486866  0.49809815  0.85241107     0.18400
H1282       H  0.79575858  0.59712382  0.95021618     0.18300
Zn1283     Zn  0.51620646  0.75902351  0.57031055     1.49700
Zn1284     Zn  0.98516309  0.82955835  0.53274188     1.49400
Zn1285     Zn  0.52456492  0.73963594  0.00078726     1.49100
Zn1286     Zn  0.97128870  0.70538215  0.52977121     1.49500
O1287       O  0.49959643  0.76249524  0.53345510    -1.81900
O1288       O  0.49667200  0.81467708  0.59455722    -0.72500
O1289       O  0.97118516  0.83779494  0.99781128    -0.72300
O1290       O  0.57086362  0.77069375  0.52222731    -0.71900
O1291       O  0.00644874  0.87207805  0.56201134    -0.72500
O1292       O  0.56326787  0.77611107  0.56690924    -0.72100
O1293       O  0.52277312  0.80885428  0.98173942    -0.72700
O1294       O  0.97163161  0.63920283  0.99803370    -0.72100
O1295       O  0.93841853  0.82527063  0.54343687    -0.72900
O1296       O  0.50947566  0.68530810  0.97526953    -0.72300
O1297       O  0.92882734  0.74173678  0.53806499    -0.72700
O1298       O  0.97785088  0.65144412  0.55941374    -0.72600
O1299       O  0.51393372  0.68989093  0.58798084    -0.72400
C1300       C  0.50054612  0.86137235  0.58870642     0.79400
C1301       C  0.49866020  0.84290109  0.98219288     0.79900
C1302       C  0.58123861  0.78027821  0.54611694     0.78800
C1303       C  0.48994722  0.64772092  0.97752135     0.79200
C1304       C  0.91976593  0.78690921  0.54524426     0.80300
C1305       C  0.49487917  0.65309296  0.58181118     0.79400
Zn1306     Zn  0.72681689  0.75456637  0.56506256     1.49700
Zn1307     Zn  0.71906538  0.75074563  0.00322947     1.49400
Zn1308     Zn  0.77436749  0.81755240  0.53351795     1.49100
Zn1309     Zn  0.77782460  0.69036285  0.53304237     1.49500
O1310       O  0.75191318  0.75342984  0.53192196    -1.81900
O1311       O  0.68303356  0.77607422  0.55101404    -0.72500
O1312       O  0.72197325  0.82092263  0.98515597    -0.72300
O1313       O  0.75860310  0.86672511  0.56276671    -0.71900
O1314       O  0.68276629  0.77680022  0.50588055    -0.72500
O1315       O  0.73774407  0.81174530  0.59151586    -0.72100
O1316       O  0.77715238  0.83510415  0.99394838    -0.72700
O1317       O  0.82266622  0.70917198  0.54577756    -0.72100
O1318       O  0.72469705  0.69397874  0.97474992    -0.72900
O1319       O  0.81852417  0.79465052  0.54672341    -0.72300
O1320       O  0.76025703  0.63936451  0.99598989    -0.72700
O1321       O  0.76328269  0.64171686  0.56151513    -0.72600
O1322       O  0.72496547  0.68607067  0.58505166    -0.72400
C1323       C  0.66875056  0.78527742  0.52828922     0.79400
C1324       C  0.74901047  0.84629183  0.98125040     0.79900
C1325       C  0.74753612  0.85638888  0.58603345     0.78800
C1326       C  0.83441374  0.75245939  0.55144055     0.79200
C1327       C  0.74234580  0.65212634  0.97531978     0.80300
C1328       C  0.74280972  0.64526266  0.58109153     0.79400
C1329       C  0.88614273  0.79496551  0.55567229    -0.14200
C1330       C  0.86875687  0.75387799  0.56164496    -0.29400
H1331       H  0.87369501  0.83210765  0.55230494     0.14800
H1332       H  0.88183720  0.71744124  0.56582296     0.15400
C1333       C  0.61575493  0.79525323  0.54977037    -0.14200
C1334       C  0.63392408  0.80299168  0.52787025    -0.29400
H1335       H  0.62753859  0.78961559  0.56956011     0.14800
H1336       H  0.62179829  0.80990650  0.50829187     0.15400
C1337       C  0.81950207  0.99904348  0.92418069    -0.16300
C1338       C  0.85119679  0.99710989  0.92346220     0.07800
C1339       C  0.88864391  0.99438998  0.92236675     0.09600
C1340       C  0.92031919  0.99192758  0.92141976    -0.17100
C1341       C  0.56949312  0.99559053  0.92351016    -0.16300
C1342       C  0.60114293  0.99762473  0.92392582     0.07800
C1343       C  0.63855710  0.00012261  0.92440250     0.09600
C1344       C  0.67022979  0.00168335  0.92465495    -0.17100
C1345       C  0.74565014  0.00205556  0.74748228    -0.16300
C1346       C  0.74470627  0.00246015  0.77200956     0.07800
C1347       C  0.74348286  0.00256911  0.80085395     0.09600
C1348       C  0.74042343  0.49711993  0.81487697    -0.17100
C1349       C  0.82057833  0.00078623  0.64840710    -0.16300
C1350       C  0.85220123  0.00169553  0.64759617     0.07800
C1351       C  0.88952648  0.00354484  0.64646948     0.09600
C1352       C  0.92111688  0.00530614  0.64575386    -0.17100
C1353       C  0.57038303  0.01020302  0.64903863    -0.16300
C1354       C  0.60210553  0.00896719  0.64868139     0.07800
C1355       C  0.63960135  0.00691364  0.64814892     0.09600
C1356       C  0.67132273  0.00516768  0.64785987    -0.17100
C1357       C  0.49342502  0.00030907  0.82440899    -0.16300
C1358       C  0.49364751  0.00404188  0.80004423     0.07800
C1359       C  0.99367628  0.00215687  0.76901985     0.09600
C1360       C  0.99287709  0.50592440  0.73771809    -0.17100
loop_ 
_geom_bond_atom_site_label_1 
_geom_bond_atom_site_label_2 
_geom_bond_distance 
_geom_bond_site_symmetry_2 
_ccdc_geom_bond_type 
C1            C3   1.548       .  S
C1            C5   1.555       .  S
C1          C344   1.546       .  S
C1          C163   1.529       .  S
C2            C6   1.545       .  S
C2            C8   1.545       .  S
C2          C347   1.544       .  S
C2          C162   1.526       .  S
C3           C11   1.385       .  A
C3          C686   1.404   1_455  A
C4          C341   1.547   1_545  S
C4           C15   1.385       .  A
C4          C687   1.404   1_455  A
C5           C19   1.386       .  A
C5          C688   1.408   1_455  A
C6            C9   1.381       .  A
C6          C683   1.405       .  A
C7          C342   1.543       .  S
C7           C13   1.379       .  A
C7          C684   1.403       .  A
C8           C16   1.378       .  A
C8          C685   1.408       .  A
C9          N350   1.359       .  A
C9          H362   1.082       .  S
N10         C349   1.359       .  A
N10        C1031   1.359       .  A
N10         C170   1.411       .  S
C11        N1030   1.361       .  A
C11         H352   1.083       .  S
H12         C351   1.084       .  S
C13         N694   1.363       .  A
C13          H23   1.080       .  S
N14          C15   1.362       .  A
N14         C693   1.360   1_455  A
N14         C115   1.441       .  S
C15          H21   1.084       .  S
C16         N697   1.360       .  A
C16          H18   1.083       .  S
N17          C19   1.364       .  A
N17         C696   1.360   1_455  A
N17         C110   1.445       .  S
C19          H20   1.081       .  S
H22         C349   1.082       .  S
C24          C26   1.542       .  S
C24          C27   1.541       .  S
C24         C368   1.547       .  S
C24         C166   1.530       .  S
C25          C29   1.545       .  S
C25          C30   1.542       .  S
C25         C371   1.540       .  S
C25         C159   1.526       .  S
C26          C34   1.380       .  A
C26          C29   1.407       .  A
C27          C38   1.376       .  A
C27          C30   1.407       .  A
C28         C364   1.542   1_545  S
C28          C42   1.378       .  A
C28          C31   1.407       .  A
C29          C32   1.381       .  A
C30          C36   1.382       .  A
C31         C365   1.540   1_545  S
C31          C39   1.377       .  A
C32          N33   1.359       .  A
C32          H45   1.083       .  S
N33          C34   1.358       .  A
N33         C155   1.410       .  S
C34          H35   1.082       .  S
C36          N37   1.359       .  A
C36          H46   1.082       .  S
N37          C38   1.359       .  A
N37         C135   1.434       .  S
C38          H44   1.083       .  S
C39          N40   1.359       .  A
C39          H41   1.084       .  S
N40          C42   1.360       .  A
N40         C138   1.435       .  S
C42          H43   1.080       .  S
C47          C49   1.543       .  S
C47          C50   1.546       .  S
C47         C391   1.548       .  S
C47         C151   1.519       .  S
C48          C52   1.542       .  S
C48          C53   1.537       .  S
C48         C394   1.538       .  S
C48         C150   1.520       .  S
C49          C57   1.381       .  A
C49         C732   1.405   1_455  A
C50          C61   1.387       .  A
C50         C733   1.402   1_455  A
C51         C387   1.547   1_545  S
C51          C65   1.382       .  A
C51         C734   1.405   1_455  A
C52          C55   1.381       .  A
C52         C729   1.405       .  A
C53          C59   1.372       .  A
C53         C730   1.404       .  A
C54         C388   1.542       .  S
C54          C62   1.380       .  A
C54         C731   1.406       .  A
C55         N736   1.359       .  A
C55          H68   1.083       .  S
N56          C57   1.359       .  A
N56         C735   1.361   1_455  A
N56         C167   1.413       .  S
C57          H58   1.083       .  S
C59         N740   1.358       .  A
C59          H69   1.084       .  S
N60          C61   1.363       .  A
N60         C739   1.358   1_455  A
N60         C111   1.437       .  S
C61          H67   1.080       .  S
C62         N743   1.359       .  A
C62          H64   1.083       .  S
N63          C65   1.361       .  A
N63         C742   1.357   1_455  A
N63         C113   1.432       .  S
C65          H66   1.083       .  S
C70          C72   1.541       .  S
C70          C74   1.543       .  S
C70         C413   1.542       .  S
C70         C154   1.520       .  S
C71          C75   1.544       .  S
C71          C77   1.541       .  S
C71         C416   1.537       .  S
C71         C147   1.519       .  S
C72          C80   1.380       .  A
C72          C75   1.405       .  A
C73         C410   1.539   1_545  S
C73          C84   1.377       .  A
C73          C76   1.406       .  A
C74          C88   1.378       .  A
C74          C77   1.404       .  A
C75          C78   1.380       .  A
C76         C411   1.541   1_545  S
C76          C82   1.379       .  A
C77          C85   1.381       .  A
C78         N419   1.359       .  A
C78         H431   1.082       .  S
N79         C418   1.357       .  A
N79         C420   1.358       .  A
N79         C158   1.406       .  S
C80         N419   1.359       .  A
C80         H421   1.083       .  S
H81         C420   1.083       .  S
C82          N83   1.358       .  A
C82          H92   1.083       .  S
N83          C84   1.357       .  A
N83         C137   1.430       .  S
C84          H90   1.082       .  S
C85          N86   1.360       .  A
C85          H87   1.080       .  S
N86          C88   1.359       .  A
N86         C134   1.436       .  S
C88          H89   1.085       .  S
H91         C418   1.083       .  S
Zn93         O97   1.882   1_455  S
Zn93         O98   2.058       .  S
Zn93        O102   1.930       .  S
Zn93        O109   2.073       .  S
Zn94        O777   1.929       .  S
Zn94        O101   1.995       .  S
Zn94        O105   1.910       .  S
Zn94        O269   2.030   1_554  S
Zn95        O267   1.924   1_455  S
Zn95        O103   2.050       .  S
Zn95        O106   2.035       .  S
Zn95        O270   1.914       .  S
Zn96        O777   1.864       .  S
Zn96        O107   1.924       .  S
Zn96        O108   2.030       .  S
Zn96        O274   2.051   1_554  S
O97        Zn774   1.901       .  S
O97        Zn265   1.955   1_654  S
O97        Zn776   1.892       .  S
O98         C110   1.277       .  A
O99        Zn264   1.997       .  S
O99         C791   1.270       .  A
O100       Zn265   1.901       .  S
O100        C112   1.263   1_556  A
O101        C790   1.269       .  A
O102        C112   1.278       .  A
O103        C111   1.274       .  A
O104       Zn266   2.031       .  S
O104        C793   1.272       .  A
O105        C114   1.264       .  A
O106        C113   1.273       .  A
O107        C114   1.277       .  A
O108        C795   1.278       .  A
O109        C115   1.280       .  A
C110        O781   1.276   1_455  A
C111        O779   1.272   1_455  A
C112        C143   1.421       .  S
C113        O784   1.271   1_455  A
C114        C139   1.421       .  S
C115        O788   1.274   1_455  A
Zn116       O120   1.914       .  S
Zn116       O121   1.917       .  S
Zn116       O125   2.016       .  S
Zn116       O132   2.030       .  S
Zn117       O290   1.931       .  S
Zn117       O122   2.012       .  S
Zn117       O128   2.031       .  S
Zn117       O294   1.919       .  S
Zn118       O120   1.921       .  S
Zn118       O123   2.033       .  S
Zn118       O129   1.899       .  S
Zn118       O296   2.025   1_554  S
Zn119       O120   1.907       .  S
Zn119       O127   1.929       .  S
Zn119       O131   2.028       .  S
Zn119       O300   2.007   1_554  S
O120       Zn287   1.934   1_554  S
O121        C133   1.267       .  A
O122        C134   1.271       .  A
O123        C135   1.273       .  A
O124       Zn287   1.906   1_554  S
O124        C133   1.269       .  A
O125        C135   1.271       .  A
O126       Zn288   2.050       .  S
O126        C134   1.275       .  A
O127        C136   1.268       .  A
O128        C137   1.273       .  A
O129        C136   1.268       .  A
O130       Zn289   2.024       .  S
O130        C137   1.273       .  A
O131        C138   1.275       .  A
O132        C138   1.275       .  A
C133        C144   1.416       .  S
C136        C140   1.418       .  S
C139        C140   1.327       .  D
C139        H141   1.088       .  S
C140        H142   1.089   1_554  S
C143        C144   1.324       .  D
C143        H145   1.088   1_554  S
C144        H146   1.088       .  S
C147        C148   1.235       .  T
C148        C149   1.459       .  S
C149        C150   1.235       .  T
C151        C152   1.235       .  T
C152        C153   1.459       .  S
C153        C154   1.235       .  T
C155        C156   1.212       .  T
C156        C157   1.423       .  S
C157        C498   1.212       .  T
C158        C497   1.209       .  T
C159        C160   1.239       .  T
C160        C161   1.465       .  S
C161        C162   1.238       .  T
C163        C164   1.240       .  T
C164        C165   1.468       .  S
C165        C166   1.241       .  T
C167        C168   1.216       .  T
C168        C849   1.428       .  S
C169        C510   1.213       .  T
C169        C848   1.423       .  S
C170        C509   1.214       .  T
C171        C173   1.545       .  S
C171        C175   1.545       .  S
C171        C514   1.543       .  S
C171        C333   1.524       .  S
C172        C176   1.544       .  S
C172        C178   1.537       .  S
C172        C517   1.542       .  S
C172        C332   1.520       .  S
C173        C181   1.384       .  A
C173        C856   1.405   1_455  A
C174        C511   1.544       .  S
C174        C185   1.377       .  A
C174        C857   1.407   1_455  A
C175        C189   1.380       .  A
C175        C858   1.404   1_455  A
C176        C853   1.405       .  A
C176        C179   1.380       .  A
C177        C512   1.541       .  S
C177        C854   1.404       .  A
C177        C183   1.382       .  A
C178        C855   1.403       .  A
C178        C186   1.377       .  A
C179        N520   1.358       .  A
C179        H532   1.083       .  S
N180        C519   1.359       .  A
N180       C1201   1.360       .  A
N180        C340   1.412       .  S
C181       N1200   1.361   1_455  A
C181        H522   1.083       .  S
H182        C521   1.083       .  S
C183        N864   1.359       .  A
C183        H193   1.082       .  S
N184        C863   1.360       .  A
N184        C185   1.360   1_655  A
N184        C285   1.437       .  S
C185        H191   1.083       .  S
C186        N867   1.359       .  A
C186        H188   1.083       .  S
N187        C866   1.359       .  A
N187        C189   1.361   1_655  A
N187        C280   1.438       .  S
C189        H190   1.082       .  S
H192        C519   1.082       .  S
C194        C196   1.545       .  S
C194        C538   1.548       .  S
C194        C197   1.552       .  S
C194        C336   1.523       .  S
C195        C199   1.547       .  S
C195        C541   1.539       .  S
C195        C200   1.544       .  S
C195        C329   1.521       .  S
C196        C204   1.382       .  A
C196        C199   1.404       .  A
C197        C208   1.386       .  A
C197        C200   1.404       .  A
C198        C534   1.549       .  S
C198        C212   1.385       .  A
C198        C201   1.407       .  A
C199        C202   1.386       .  A
C200        C206   1.383       .  A
C201        C535   1.540       .  S
C201        C209   1.379       .  A
C202        N203   1.361       .  A
C202        H215   1.082       .  S
N203        C204   1.359       .  A
N203        C325   1.416       .  S
C204        H205   1.083       .  S
C206        N207   1.362       .  A
C206        H216   1.082       .  S
N207        C208   1.365       .  A
N207        C305   1.448       .  S
C208        H214   1.082       .  S
C209        N210   1.358       .  A
C209        H211   1.083       .  S
N210        C212   1.361       .  A
N210        C308   1.438       .  S
C212        H213   1.082       .  S
C217        C219   1.543       .  S
C217        C561   1.544       .  S
C217        C220   1.550       .  S
C217        C321   1.526       .  S
C218        C222   1.545       .  S
C218        C564   1.541       .  S
C218        C223   1.542       .  S
C218        C320   1.519       .  S
C219        C227   1.382       .  A
C219        C902   1.404   1_455  A
C220        C231   1.385       .  A
C220        C903   1.405   1_455  A
C221        C557   1.538   1_545  S
C221        C235   1.378       .  A
C221        C904   1.404   1_455  A
C222        C899   1.405       .  A
C222        C225   1.382       .  A
C223        C900   1.406       .  A
C223        C229   1.380       .  A
C224        C558   1.541   1_545  S
C224        C901   1.403       .  A
C224        C232   1.382       .  A
C225        N906   1.360       .  A
C225        H238   1.084       .  S
N226        C905   1.360       .  A
N226        C227   1.359   1_655  A
N226        C337   1.413       .  S
C227        H228   1.082       .  S
C229        N910   1.358       .  A
C229        H239   1.084       .  S
N230        C909   1.357       .  A
N230        C231   1.363   1_655  A
N230        C281   1.437       .  S
C231        H237   1.081       .  S
C232        N913   1.361       .  A
C232        H234   1.082       .  S
N233        C912   1.356       .  A
N233        C235   1.357   1_655  A
N233        C283   1.425       .  S
C235        H236   1.083       .  S
C240        C242   1.550       .  S
C240        C244   1.547       .  S
C240        C583   1.549       .  S
C240        C324   1.525       .  S
C241        C245   1.542       .  S
C241        C247   1.539       .  S
C241        C586   1.538       .  S
C241        C317   1.520       .  S
C242        C250   1.386       .  A
C242        C245   1.405       .  A
C243        C580   1.549   1_545  S
C243        C254   1.388       .  A
C243        C246   1.404       .  A
C244        C258   1.383       .  A
C244        C247   1.403       .  A
C245        C248   1.381       .  A
C246        C581   1.538   1_545  S
C246        C252   1.373       .  A
C247        C255   1.380       .  A
C248        N589   1.359       .  A
C248        H601   1.082       .  S
N249        C588   1.358       .  A
N249        C590   1.360       .  A
N249        C328   1.411       .  S
C250        N589   1.362       .  A
C250        H591   1.083       .  S
H251        C590   1.083       .  S
C252        N253   1.358       .  A
C252        H262   1.083       .  S
N253        C254   1.363       .  A
N253        C307   1.438       .  S
C254        H260   1.081       .  S
C255        N256   1.359       .  A
C255        H257   1.081       .  S
N256        C258   1.361       .  A
N256        C304   1.437       .  S
C258        H259   1.084       .  S
H261        C588   1.083       .  S
Zn263       O267   1.900   1_455  S
Zn263       O268   2.030       .  S
Zn263       O272   1.933       .  S
Zn263       O279   2.023       .  S
Zn264       O947   1.901       .  S
Zn264       O271   2.034       .  S
Zn264       O275   1.932       .  S
Zn265       O273   2.031   1_455  S
Zn265       O276   2.012       .  S
Zn266       O947   1.920       .  S
Zn266       O277   1.919       .  S
Zn266       O278   2.042       .  S
O267       Zn944   1.896       .  S
O267       Zn946   1.917       .  S
O268        C280   1.277   1_455  A
O269        C961   1.273       .  A
O270        C282   1.271       .  A
O271        C960   1.277       .  A
O272        C282   1.269       .  A
O273        C281   1.272       .  A
O274        C963   1.275       .  A
O275        C284   1.269       .  A
O276        C283   1.270   1_455  A
O277        C284   1.270       .  A
O278        C965   1.275       .  A
O279        C285   1.272   1_455  A
C280        O951   1.279       .  A
C281        O949   1.274       .  A
C282        C313   1.424       .  S
C283        O954   1.270   1_556  A
C284        C309   1.425       .  S
C285        O958   1.274       .  A
Zn286       O290   1.878       .  S
Zn286       O291   1.944       .  S
Zn286       O295   2.058       .  S
Zn286       O302   2.062       .  S
Zn287       O292   2.045       .  S
Zn287       O298   2.061       .  S
Zn288       O290   1.877       .  S
Zn288       O293   2.059       .  S
Zn288       O299   1.950       .  S
Zn289       O290   1.930       .  S
Zn289       O297   1.915       .  S
Zn289       O301   2.012       .  S
O291        C303   1.279       .  A
O292        C304   1.275       .  A
O293        C305   1.282       .  A
O294        C303   1.265       .  A
O295        C305   1.281       .  A
O296        C304   1.272       .  A
O297        C306   1.264       .  A
O298        C307   1.276       .  A
O299        C306   1.280       .  A
O300        C307   1.271       .  A
O301        C308   1.271       .  A
O302        C308   1.276       .  A
C303        C314   1.428       .  S
C306        C310   1.429       .  S
C309        C310   1.326       .  D
C309        H311   1.088       .  S
C310        H312   1.087       .  S
C313        C314   1.326       .  D
C313        H315   1.090       .  S
C314        H316   1.090       .  S
C317        C318   1.235       .  T
C318        C319   1.459       .  S
C319        C320   1.235       .  T
C321        C322   1.238       .  T
C322        C323   1.465       .  S
C323        C324   1.238       .  T
C325        C326   1.218       .  T
C326        C327   1.431       .  S
C327        C668   1.218       .  T
C328        C667   1.214       .  T
C329        C330   1.235       .  T
C330        C331   1.460       .  S
C331        C332   1.235       .  T
C333        C334   1.237       .  T
C334        C335   1.463       .  S
C335        C336   1.237       .  T
C337        C338   1.216       .  T
C338       C1019   1.428       .  S
C339        C680   1.213       .  T
C339       C1018   1.424       .  S
C340        C679   1.214       .  T
C341        C343   1.546       .  S
C341        C345   1.546       .  S
C341        C503   1.520       .  S
C342        C346   1.542       .  S
C342        C348   1.539   1_545  S
C342        C502   1.524       .  S
C343        C351   1.382       .  A
C343       C1026   1.406   1_455  A
C344        C355   1.383       .  A
C344       C1027   1.403   1_455  A
C345        C359   1.386       .  A
C345       C1028   1.404   1_455  A
C346       C1023   1.405       .  A
C346        C349   1.380       .  A
C347       C1024   1.402       .  A
C347        C353   1.382       .  A
C348       C1025   1.404       .  A
C348        C356   1.371       .  A
N350        C691   1.359       .  A
N350        C510   1.410       .  S
C351        N690   1.360       .  A
C353       N1034   1.361       .  A
C353        H363   1.080       .  S
N354       C1033   1.358   1_455  A
N354        C355   1.360       .  A
N354        C455   1.434       .  S
C355        H361   1.084       .  S
C356       N1037   1.359       .  A
C356        H358   1.083       .  S
N357       C1036   1.358   1_455  A
N357        C359   1.361       .  A
N357        C450   1.434       .  S
C359        H360   1.081       .  S
C364        C366   1.533       .  S
C364        C367   1.539       .  S
C364        C506   1.521       .  S
C365        C369   1.548       .  S
C365        C370   1.541       .  S
C365        C499   1.524       .  S
C366        C374   1.375       .  A
C366        C369   1.406       .  A
C367        C378   1.374       .  A
C367        C370   1.405       .  A
C368        C382   1.381       .  A
C368        C371   1.407       .  A
C369        C372   1.382       .  A
C370        C376   1.380       .  A
C371        C379   1.377       .  A
C372        N373   1.360       .  A
C372        H385   1.084       .  S
N373        C374   1.355       .  A
N373        C495   1.406       .  S
C374        H375   1.082       .  S
C376        N377   1.359       .  A
C376        H386   1.082       .  S
N377        C378   1.358       .  A
N377        C475   1.431       .  S
C378        H384   1.083       .  S
C379        N380   1.357       .  A
C379        H381   1.084       .  S
N380        C382   1.361       .  A
N380        C478   1.432       .  S
C382        H383   1.081       .  S
C387        C389   1.541       .  S
C387        C390   1.546       .  S
C387        C491   1.523       .  S
C388        C392   1.546   1_545  S
C388        C393   1.539   1_545  S
C388        C490   1.522       .  S
C389        C397   1.378       .  A
C389       C1072   1.405   1_455  A
C390        C401   1.383       .  A
C390       C1073   1.404   1_455  A
C391        C405   1.383       .  A
C391       C1074   1.405   1_455  A
C392       C1069   1.405       .  A
C392        C395   1.383       .  A
C393       C1070   1.405       .  A
C393        C399   1.379       .  A
C394       C1071   1.405       .  A
C394        C402   1.378       .  A
C395       N1076   1.360       .  A
C395        H408   1.082   1_565  S
N396       C1075   1.358   1_455  A
N396        C397   1.357       .  A
N396        C507   1.407       .  S
C397        H398   1.083       .  S
C399       N1080   1.358       .  A
C399        H409   1.082       .  S
N400       C1079   1.358   1_455  A
N400        C401   1.362       .  A
N400        C451   1.435       .  S
C401        H407   1.082       .  S
C402       N1083   1.360       .  A
C402        H404   1.081       .  S
N403       C1082   1.362   1_455  A
N403        C405   1.362       .  A
N403        C453   1.443       .  S
C405        H406   1.083       .  S
C410        C412   1.540       .  S
C410        C414   1.540       .  S
C410        C494   1.523       .  S
C411        C415   1.543       .  S
C411        C417   1.545       .  S
C411        C487   1.522       .  S
C412        C420   1.379       .  A
C412        C415   1.406       .  A
C413        C424   1.380       .  A
C413        C416   1.404       .  A
C414        C428   1.373       .  A
C414        C417   1.405       .  A
C415        C418   1.378       .  A
C416        C422   1.375       .  A
C417        C425   1.385       .  A
N419        C498   1.409       .  S
C422        N423   1.358       .  A
C422        H432   1.083       .  S
N423        C424   1.361       .  A
N423        C477   1.434       .  S
C424        H430   1.081       .  S
C425        N426   1.361       .  A
C425        H427   1.082       .  S
N426        C428   1.359       .  A
N426        C474   1.436       .  S
C428        H429   1.082       .  S
Zn433       O437   1.930   1_455  S
Zn433       O438   2.053       .  S
Zn433       O442   1.912       .  S
Zn433       O449   2.039       .  S
Zn434      O1117   1.903       .  S
Zn434       O609   2.037   1_554  S
Zn434       O441   1.989       .  S
Zn434       O445   1.936       .  S
Zn435       O607   1.875       .  S
Zn435       O610   1.932       .  S
Zn435       O443   2.055       .  S
Zn435       O446   2.051       .  S
Zn436      O1117   1.919       .  S
Zn436       O614   2.024   1_554  S
Zn436       O447   1.901       .  S
Zn436       O448   2.020       .  S
O437      Zn1114   1.905       .  S
O437       Zn605   1.904   1_655  S
O437      Zn1116   1.914       .  S
O438        C450   1.275       .  A
O439       Zn604   2.019       .  S
O439       C1131   1.272       .  A
O440       Zn605   1.915       .  S
O440        C452   1.266       .  A
O441       C1130   1.269       .  A
O442        C452   1.270       .  A
O443        C451   1.275       .  A
O444       Zn606   2.048       .  S
O444       C1133   1.280       .  A
O445        C454   1.268       .  A
O446        C453   1.280       .  A
O447        C454   1.268       .  A
O448       C1135   1.271       .  A
O449        C455   1.274       .  A
C450       O1121   1.270   1_455  A
C451       O1119   1.270   1_455  A
C452        C483   1.419       .  S
C453       O1124   1.279   1_455  A
C454        C479   1.423       .  S
C455       O1128   1.272   1_455  A
Zn456       O460   1.931       .  S
Zn456       O461   1.904       .  S
Zn456       O465   1.999       .  S
Zn456       O472   2.035       .  S
Zn457       O630   1.913       .  S
Zn457       O462   2.016       .  S
Zn457       O634   1.933       .  S
Zn457       O468   2.034       .  S
Zn458       O460   1.871       .  S
Zn458       O463   2.042       .  S
Zn458       O636   2.032   1_554  S
Zn458       O469   1.928       .  S
Zn459       O460   1.918       .  S
Zn459       O467   1.921       .  S
Zn459       O640   1.999   1_554  S
Zn459       O471   2.029       .  S
O460       Zn627   1.878       .  S
O461        C473   1.263       .  A
O462        C474   1.271       .  A
O463        C475   1.274       .  A
O464       Zn627   1.940       .  S
O464        C473   1.279       .  A
O465        C475   1.269       .  A
O466       Zn628   2.044       .  S
O466        C474   1.274       .  A
O467        C476   1.265       .  A
O468        C477   1.277       .  A
O469        C476   1.277       .  A
O470       Zn629   2.021       .  S
O470        C477   1.276       .  A
O471        C478   1.272       .  A
O472        C478   1.273       .  A
C473        C484   1.422       .  S
C476        C480   1.426       .  S
C479        C480   1.328       .  D
C479        H481   1.092       .  S
C480        H482   1.091       .  S
C483        C484   1.324       .  D
C483        H485   1.090       .  S
C484        H486   1.089       .  S
C487        C488   1.236       .  T
C488        C489   1.461   1_565  S
C489        C490   1.236       .  T
C491        C492   1.237       .  T
C492        C493   1.462       .  S
C493        C494   1.237       .  T
C495        C496   1.209       .  T
C496        C497   1.418       .  S
C499        C500   1.238       .  T
C500        C501   1.463       .  S
C501        C502   1.237   1_565  T
C503        C504   1.235       .  T
C504        C505   1.460       .  S
C505        C506   1.235       .  T
C507        C508   1.210       .  T
C508       C1189   1.419       .  S
C509       C1188   1.425   1_545  S
C511        C513   1.542       .  S
C511        C515   1.542   1_545  S
C511        C673   1.524       .  S
C512        C516   1.543       .  S
C512        C518   1.540   1_545  S
C512        C672   1.518       .  S
C513        C521   1.381       .  A
C513       C1196   1.405   1_455  A
C514        C525   1.380       .  A
C514       C1197   1.405   1_455  A
C515        C529   1.379       .  A
C515       C1198   1.405   1_455  A
C516       C1193   1.405       .  A
C516        C519   1.380       .  A
C517       C1194   1.405       .  A
C517        C523   1.380       .  A
C518       C1195   1.405       .  A
C518        C526   1.379       .  A
N520        C861   1.360       .  A
N520        C680   1.411       .  S
C521        N860   1.359   1_455  A
C523       N1204   1.361       .  A
C523        H533   1.080       .  S
N524       C1203   1.361       .  A
N524        C525   1.359   1_655  A
N524        C625   1.437       .  S
C525        H531   1.085       .  S
C526       N1207   1.358       .  A
C526        H528   1.083       .  S
N527       C1206   1.357       .  A
N527        C529   1.358   1_655  A
N527        C620   1.428   1_655  S
C529        H530   1.082       .  S
C534        C536   1.544       .  S
C534        C537   1.547   1_545  S
C534        C676   1.524       .  S
C535        C539   1.542       .  S
C535        C540   1.538   1_545  S
C535        C669   1.519       .  S
C536        C544   1.382       .  A
C536        C539   1.404       .  A
C537        C548   1.383       .  A
C537        C540   1.404       .  A
C538        C552   1.389       .  A
C538        C541   1.403       .  A
C539        C542   1.382       .  A
C540        C546   1.377       .  A
C541        C549   1.374       .  A
C542        N543   1.359       .  A
C542        H555   1.083       .  S
N543        C544   1.359       .  A
N543        C665   1.411   1_545  S
C544        H545   1.082       .  S
C546        N547   1.358       .  A
C546        H556   1.082       .  S
N547        C548   1.360       .  A
N547        C645   1.434       .  S
C548        H554   1.083       .  S
C549        N550   1.359       .  A
C549        H551   1.084       .  S
N550        C552   1.363       .  A
N550        C648   1.439       .  S
C552        H553   1.081       .  S
C557        C559   1.540       .  S
C557        C560   1.546       .  S
C557        C661   1.523       .  S
C558        C562   1.547       .  S
C558        C563   1.539       .  S
C558        C660   1.520       .  S
C559        C567   1.377       .  A
C559       C1242   1.407   1_455  A
C560        C571   1.380       .  A
C560       C1243   1.407   1_455  A
C561        C575   1.376       .  A
C561       C1244   1.406   1_455  A
C562       C1239   1.405       .  A
C562        C565   1.383       .  A
C563       C1240   1.404       .  A
C563        C569   1.377       .  A
C564       C1241   1.405       .  A
C564        C572   1.382       .  A
C565       N1246   1.360       .  A
C565        H578   1.083       .  S
N566       C1245   1.359       .  A
N566        C567   1.357   1_655  A
N566        C677   1.407       .  S
C567        H568   1.083       .  S
C569       N1250   1.359       .  A
C569        H579   1.085       .  S
N570       C1249   1.358       .  A
N570        C571   1.362   1_655  A
N570        C621   1.436       .  S
C571        H577   1.080       .  S
C572       N1253   1.359       .  A
C572        H574   1.083       .  S
N573       C1252   1.357       .  A
N573        C575   1.360   1_655  A
N573        C623   1.433       .  S
C575        H576   1.083       .  S
C580        C582   1.547       .  S
C580        C584   1.546       .  S
C580        C664   1.522       .  S
C581        C585   1.540       .  S
C581        C587   1.540       .  S
C581        C657   1.520       .  S
C582        C590   1.383       .  A
C582        C585   1.405       .  A
C583        C594   1.386       .  A
C583        C586   1.407       .  A
C584        C598   1.382       .  A
C584        C587   1.403       .  A
C585        C588   1.380       .  A
C586        C592   1.376       .  A
C587        C595   1.379       .  A
N589        C668   1.415       .  S
C592        N593   1.357       .  A
C592        H602   1.083       .  S
N593        C594   1.361       .  A
N593        C647   1.436       .  S
C594        H600   1.082       .  S
C595        N596   1.362       .  A
C595        H597   1.079       .  S
N596        C598   1.362       .  A
N596        C644   1.442       .  S
C598        H599   1.085       .  S
Zn603       O607   1.932       .  S
Zn603       O608   2.030   1_455  S
Zn603       O612   1.914       .  S
Zn603       O619   2.021       .  S
Zn604      O1287   1.931       .  S
Zn604       O611   2.027       .  S
Zn604       O615   1.917       .  S
Zn605       O613   2.024   1_554  S
Zn605       O616   2.001   1_554  S
Zn606      O1287   1.874       .  S
Zn606       O617   1.935       .  S
Zn606       O618   2.046       .  S
O607      Zn1284   1.920   1_455  S
O607      Zn1286   1.866   1_455  S
O608        C620   1.273   1_655  A
O609       C1301   1.277       .  A
O610        C622   1.278       .  A
O611       C1300   1.273       .  A
O612        C622   1.265       .  A
O613        C621   1.275   1_455  A
O614       C1303   1.273       .  A
O615        C624   1.265       .  A
O616        C623   1.269   1_455  A
O617        C624   1.278       .  A
O618       C1305   1.274       .  A
O619        C625   1.272   1_455  A
C620       O1291   1.271       .  A
C621       O1289   1.277       .  A
C622        C653   1.426       .  S
C623       O1294   1.275       .  A
C624        C649   1.428       .  S
C625       O1298   1.275       .  A
Zn626       O630   1.929       .  S
Zn626       O631   1.904       .  S
Zn626       O635   2.037       .  S
Zn626       O642   2.065       .  S
Zn627       O632   2.051   1_554  S
Zn627       O638   2.060   1_554  S
Zn628       O630   1.920       .  S
Zn628       O633   2.022       .  S
Zn628       O639   1.907       .  S
Zn629       O630   1.902       .  S
Zn629       O637   1.932       .  S
Zn629       O641   2.010       .  S
O631        C643   1.270       .  A
O632        C644   1.280       .  A
O633        C645   1.272       .  A
O634        C643   1.268       .  A
O635        C645   1.274       .  A
O636        C644   1.278       .  A
O637        C646   1.268       .  A
O638        C647   1.276       .  A
O639        C646   1.269       .  A
O640        C647   1.270       .  A
O641        C648   1.271       .  A
O642        C648   1.276       .  A
C643        C654   1.424       .  S
C646        C650   1.425       .  S
C649        C650   1.328       .  D
C649        H651   1.085       .  S
C650        H652   1.085       .  S
C653        C654   1.328       .  D
C653        H655   1.086       .  S
C654        H656   1.087       .  S
C657        C658   1.235       .  T
C658        C659   1.459       .  S
C659        C660   1.235       .  T
C661        C662   1.236       .  T
C662        C663   1.462       .  S
C663        C664   1.236       .  T
C665        C666   1.214       .  T
C666        C667   1.425       .  S
C669        C670   1.234       .  T
C670        C671   1.458       .  S
C671        C672   1.234       .  T
C673        C674   1.237       .  T
C674        C675   1.463       .  S
C675        C676   1.237       .  T
C677        C678   1.210       .  T
C678       C1359   1.419   1_565  S
C679       C1358   1.426       .  S
C681        C683   1.540       .  S
C681        C685   1.546       .  S
C681       C1024   1.539       .  S
C681        C843   1.516       .  S
C682        C686   1.541       .  S
C682        C688   1.542       .  S
C682       C1027   1.537       .  S
C682        C842   1.518       .  S
C683        C691   1.380       .  A
C684       C1021   1.545       .  S
C684        C695   1.383       .  A
C685        C699   1.385       .  A
C686        C689   1.381       .  A
C687       C1022   1.537       .  S
C687        C693   1.374       .  A
C688        C696   1.382       .  A
C689       N1030   1.358   1_655  A
C689       H1042   1.083       .  S
N690       C1029   1.356   1_455  A
N690        C850   1.407       .  S
C691       H1032   1.083       .  S
H692       C1031   1.083       .  S
C693        H703   1.080       .  S
N694        C695   1.362       .  A
N694        C795   1.444       .  S
C695        H701   1.085       .  S
C696        H698   1.083       .  S
N697        C699   1.360       .  A
N697        C790   1.437       .  S
C699        H700   1.083       .  S
H702       C1029   1.082       .  S
C704        C706   1.535       .  S
C704       C1048   1.543       .  S
C704        C707   1.536       .  S
C704        C846   1.516       .  S
C705        C709   1.542       .  S
C705       C1051   1.538       .  S
C705        C710   1.540       .  S
C705        C839   1.517       .  S
C706        C714   1.375       .  A
C706        C709   1.405       .  A
C707        C718   1.374       .  A
C707        C710   1.407       .  A
C708       C1044   1.546       .  S
C708        C722   1.382       .  A
C708        C711   1.404       .  A
C709        C712   1.379       .  A
C710        C716   1.380       .  A
C711       C1045   1.545       .  S
C711        C719   1.382       .  A
C712        N713   1.358       .  A
C712        H725   1.083       .  S
N713        C714   1.355       .  A
N713        C835   1.403       .  S
C714        H715   1.083       .  S
C716        N717   1.357       .  A
C716        H726   1.083       .  S
N717        C718   1.355       .  A
N717        C815   1.428       .  S
C718        H724   1.083       .  S
C719        N720   1.362       .  A
C719        H721   1.085       .  S
N720        C722   1.363       .  A
N720        C818   1.444       .  S
C722        H723   1.079       .  S
C727        C729   1.543       .  S
C727       C1071   1.551       .  S
C727        C730   1.544       .  S
C727        C831   1.523       .  S
C728        C732   1.546       .  S
C728       C1074   1.542       .  S
C728        C733   1.537       .  S
C728        C830   1.522       .  S
C729        C737   1.380       .  A
C730        C741   1.384       .  A
C731       C1067   1.549   1_545  S
C731        C745   1.384       .  A
C732        C735   1.384       .  A
C733        C739   1.373       .  A
C734       C1068   1.537       .  S
C734        C742   1.376       .  A
C735        H748   1.083       .  S
N736        C737   1.359       .  A
N736        C847   1.410       .  S
C737        H738   1.082       .  S
C739        H749   1.084       .  S
N740        C741   1.360       .  A
N740        C791   1.434       .  S
C741        H747   1.080       .  S
C742        H744   1.083       .  S
N743        C745   1.361       .  A
N743        C793   1.437       .  S
C745        H746   1.082       .  S
C750        C752   1.539       .  S
C750        C754   1.544       .  S
C750       C1093   1.541       .  S
C750        C834   1.524       .  S
C751        C755   1.540       .  S
C751        C757   1.543       .  S
C751       C1096   1.533       .  S
C751        C827   1.522       .  S
C752        C760   1.378       .  A
C752        C755   1.407       .  A
C753       C1090   1.541   1_545  S
C753        C764   1.379       .  A
C753        C756   1.404       .  A
C754        C768   1.378       .  A
C754        C757   1.407       .  A
C755        C758   1.376       .  A
C756       C1091   1.538   1_545  S
C756        C762   1.378       .  A
C757        C765   1.380       .  A
C758       N1099   1.356       .  A
C758       H1111   1.082       .  S
N759       C1098   1.358       .  A
N759       C1100   1.361       .  A
N759        C838   1.412       .  S
C760       N1099   1.357       .  A
C760       H1101   1.083       .  S
H761       C1100   1.082       .  S
C762        N763   1.358       .  A
C762        H772   1.083       .  S
N763        C764   1.358       .  A
N763        C817   1.430       .  S
C764        H770   1.082       .  S
C765        N766   1.361       .  A
C765        H767   1.081       .  S
N766        C768   1.360       .  A
N766        C814   1.436       .  S
C768        H769   1.084       .  S
H771       C1098   1.083       .  S
Zn773       O777   1.879       .  S
Zn773       O778   2.073       .  S
Zn773       O782   1.949       .  S
Zn773       O789   2.065       .  S
Zn774       O949   2.049   1_554  S
Zn774       O781   2.044       .  S
Zn774       O785   1.927       .  S
Zn775       O947   1.927       .  S
Zn775       O950   1.915       .  S
Zn775       O783   2.050       .  S
Zn775       O786   2.041       .  S
Zn776       O954   2.006       .  S
Zn776       O787   1.918       .  S
Zn776       O788   2.008       .  S
O777       Zn945   1.926   1_554  S
O778        C790   1.277       .  A
O779       Zn944   2.015       .  S
O780       Zn945   1.915       .  S
O780        C792   1.265   1_556  A
O782        C792   1.281       .  A
O783        C791   1.275       .  A
O784       Zn946   2.021       .  S
O785        C794   1.274       .  A
O786        C793   1.273       .  A
O787        C794   1.268       .  A
O789        C795   1.282       .  A
C792        C823   1.429       .  S
C794        C819   1.425       .  S
Zn796       O800   1.902       .  S
Zn796       O801   1.941       .  S
Zn796       O805   2.020       .  S
Zn796       O812   2.047       .  S
Zn797       O970   1.929       .  S
Zn797       O802   2.015       .  S
Zn797       O974   1.915       .  S
Zn797       O808   2.029       .  S
Zn798       O800   1.942       .  S
Zn798       O803   2.007       .  S
Zn798       O976   2.018       .  S
Zn798       O809   1.912       .  S
Zn799       O800   1.878       .  S
Zn799       O807   1.933       .  S
Zn799       O980   2.046       .  S
Zn799       O811   2.054       .  S
O800       Zn967   1.916   1_554  S
O801        C813   1.271       .  A
O802        C814   1.271       .  A
O803        C815   1.270       .  A
O804       Zn967   1.919   1_554  S
O804        C813   1.272       .  A
O805        C815   1.272       .  A
O806       Zn968   2.052       .  S
O806        C814   1.275       .  A
O807        C816   1.277       .  A
O808        C817   1.273       .  A
O809        C816   1.263       .  A
O810       Zn969   2.023       .  S
O810        C817   1.273       .  A
O811        C818   1.280       .  A
O812        C818   1.279       .  A
C813        C824   1.426       .  S
C816        C820   1.428       .  S
C819        C820   1.324       .  D
C819        H821   1.089   1_554  S
C820        H822   1.089       .  S
C823        C824   1.326       .  D
C823        H825   1.087   1_554  S
C824        H826   1.088       .  S
C827        C828   1.236       .  T
C828        C829   1.461       .  S
C829        C830   1.236       .  T
C831        C832   1.237       .  T
C832        C833   1.463       .  S
C833        C834   1.237       .  T
C835        C836   1.207       .  T
C836        C837   1.414       .  S
C837       C1178   1.207       .  T
C838       C1177   1.215       .  T
C839        C840   1.233       .  T
C840        C841   1.457       .  S
C841        C842   1.233       .  T
C843        C844   1.232       .  T
C844        C845   1.455       .  S
C845        C846   1.232       .  T
C847        C848   1.213       .  T
C849       C1190   1.216       .  T
C850       C1189   1.210       .  T
C851        C853   1.544       .  S
C851        C855   1.543       .  S
C851       C1194   1.544       .  S
C851       C1013   1.521       .  S
C852        C856   1.545       .  S
C852        C858   1.538       .  S
C852       C1197   1.544       .  S
C852       C1012   1.521       .  S
C853        C861   1.382       .  A
C854       C1191   1.543       .  S
C854        C865   1.377       .  A
C855        C869   1.380       .  A
C856        C859   1.381       .  A
C857       C1192   1.545       .  S
C857        C863   1.384       .  A
C858        C866   1.379       .  A
C859       N1200   1.359       .  A
C859       H1212   1.083       .  S
N860       C1199   1.356       .  A
N860       C1020   1.407       .  S
C861       H1202   1.082       .  S
H862       C1201   1.083       .  S
C863        H873   1.082       .  S
N864        C865   1.360       .  A
N864        C965   1.435       .  S
C865        H871   1.082       .  S
C866        H868   1.083       .  S
N867        C869   1.361       .  A
N867        C960   1.437       .  S
C869        H870   1.082       .  S
H872       C1199   1.082       .  S
C874        C876   1.541       .  S
C874       C1218   1.546       .  S
C874        C877   1.550       .  S
C874       C1016   1.520       .  S
C875        C879   1.545       .  S
C875       C1221   1.537       .  S
C875        C880   1.541       .  S
C875       C1009   1.522       .  S
C876        C884   1.379       .  A
C876        C879   1.405       .  A
C877        C888   1.384       .  A
C877        C880   1.405       .  A
C878       C1214   1.547       .  S
C878        C892   1.384       .  A
C878        C881   1.404       .  A
C879        C882   1.383       .  A
C880        C886   1.380       .  A
C881       C1215   1.539       .  S
C881        C889   1.379       .  A
C882        N883   1.360       .  A
C882        H895   1.083       .  S
N883        C884   1.358       .  A
N883       C1005   1.410       .  S
C884        H885   1.083       .  S
C886        N887   1.361       .  A
C886        H896   1.082       .  S
N887        C888   1.365       .  A
N887        C985   1.444       .  S
C888        H894   1.082       .  S
C889        N890   1.359       .  A
C889        H891   1.083       .  S
N890        C892   1.361       .  A
N890        C988   1.437       .  S
C892        H893   1.082       .  S
C897        C899   1.539       .  S
C897       C1241   1.537       .  S
C897        C900   1.544       .  S
C897       C1001   1.522       .  S
C898        C902   1.545       .  S
C898       C1244   1.538       .  S
C898        C903   1.539       .  S
C898       C1000   1.517       .  S
C899        C907   1.379       .  A
C900        C911   1.380       .  A
C901       C1237   1.542   1_545  S
C901        C915   1.378       .  A
C902        C905   1.383       .  A
C903        C909   1.380       .  A
C904       C1238   1.535   1_545  S
C904        C912   1.372       .  A
C905        H918   1.084       .  S
N906        C907   1.358       .  A
N906       C1017   1.410       .  S
C907        H908   1.082       .  S
C909        H919   1.084       .  S
N910        C911   1.359       .  A
N910        C961   1.433       .  S
C911        H917   1.081       .  S
C912        H914   1.082       .  S
N913        C915   1.359       .  A
N913        C963   1.436       .  S
C915        H916   1.083       .  S
C920        C922   1.545       .  S
C920        C924   1.543       .  S
C920       C1263   1.548       .  S
C920       C1004   1.521       .  S
C921        C925   1.540       .  S
C921        C927   1.540       .  S
C921       C1266   1.540       .  S
C921        C997   1.517       .  S
C922        C930   1.382       .  A
C922        C925   1.404       .  A
C923       C1260   1.552       .  S
C923        C934   1.389       .  A
C923        C926   1.405       .  A
C924        C938   1.380       .  A
C924        C927   1.403       .  A
C925        C928   1.379       .  A
C926       C1261   1.546       .  S
C926        C932   1.381       .  A
C927        C935   1.380       .  A
C928       N1269   1.358       .  A
C928       H1281   1.082       .  S
N929       C1268   1.360       .  A
N929       C1270   1.362       .  A
N929       C1008   1.418       .  S
C930       N1269   1.360       .  A
C930       H1271   1.083       .  S
H931       C1270   1.083       .  S
C932        N933   1.362       .  A
C932        H942   1.083       .  S
N933        C934   1.364       .  A
N933        C987   1.446       .  S
C934        H940   1.081       .  S
C935        N936   1.360       .  A
C935        H937   1.081       .  S
N936        C938   1.358       .  A
N936        C984   1.433       .  S
C938        H939   1.084       .  S
H941       C1268   1.082       .  S
Zn943       O947   1.911       .  S
Zn943       O948   2.036       .  S
Zn943       O952   1.927       .  S
Zn943       O959   2.015       .  S
Zn944       O951   2.043       .  S
Zn944       O955   1.946       .  S
Zn945       O953   2.038       .  S
Zn945       O956   2.014       .  S
Zn946       O957   1.920       .  S
Zn946       O958   2.046       .  S
O948        C960   1.277       .  A
O950        C962   1.271       .  A
O952        C962   1.267       .  A
O953        C961   1.274       .  A
O955        C964   1.271       .  A
O956        C963   1.271       .  A
O957        C964   1.271       .  A
O959        C965   1.272       .  A
C962        C993   1.425       .  S
C964        C989   1.426       .  S
Zn966       O970   1.874       .  S
Zn966       O971   1.937       .  S
Zn966       O975   2.045       .  S
Zn966       O982   2.060       .  S
Zn967       O972   2.047       .  S
Zn967       O978   2.064       .  S
Zn968       O970   1.873       .  S
Zn968       O973   2.055       .  S
Zn968       O979   1.959       .  S
Zn969       O970   1.924       .  S
Zn969       O977   1.912       .  S
Zn969       O981   2.010       .  S
O971        C983   1.278       .  A
O972        C984   1.275       .  A
O973        C985   1.282       .  A
O974        C983   1.264       .  A
O975        C985   1.280       .  A
O976        C984   1.271   1_554  A
O977        C986   1.264       .  A
O978        C987   1.277       .  A
O979        C986   1.281       .  A
O980        C987   1.275   1_554  A
O981        C988   1.271       .  A
O982        C988   1.276       .  A
C983        C994   1.428       .  S
C986        C990   1.429       .  S
C989        C990   1.326       .  D
C989        H991   1.089       .  S
C990        H992   1.088       .  S
C993        C994   1.325       .  D
C993        H995   1.090       .  S
C994        H996   1.089       .  S
C997        C998   1.233       .  T
C998        C999   1.456       .  S
C999       C1000   1.233       .  T
C1001      C1002   1.236       .  T
C1002      C1003   1.461       .  S
C1003      C1004   1.236       .  T
C1005      C1006   1.213       .  T
C1006      C1007   1.424       .  S
C1007      C1348   1.213       .  T
C1008      C1347   1.220       .  T
C1009      C1010   1.236       .  T
C1010      C1011   1.461       .  S
C1011      C1012   1.236       .  T
C1013      C1014   1.236       .  T
C1014      C1015   1.460       .  S
C1015      C1016   1.235       .  T
C1017      C1018   1.213       .  T
C1019      C1360   1.216       .  T
C1020      C1359   1.210       .  T
C1021      C1023   1.544       .  S
C1021      C1025   1.544   1_545  S
C1021      C1183   1.517       .  S
C1022      C1026   1.538   1_545  S
C1022      C1028   1.537   1_545  S
C1022      C1182   1.522       .  S
C1023      C1031   1.382       .  A
C1024      C1035   1.379       .  A
C1025      C1039   1.386       .  A
C1026      C1029   1.377       .  A
C1027      C1033   1.378       .  A
C1028      C1036   1.372       .  A
N1030      C1190   1.413       .  S
C1033      H1043   1.081       .  S
N1034      C1035   1.357       .  A
N1034      C1135   1.435       .  S
C1035      H1041   1.084       .  S
C1036      H1038   1.083       .  S
N1037      C1039   1.361       .  A
N1037      C1130   1.434       .  S
C1039      H1040   1.081       .  S
C1044      C1046   1.539       .  S
C1044      C1047   1.541   1_545  S
C1044      C1186   1.517       .  S
C1045      C1049   1.550       .  S
C1045      C1050   1.543   1_545  S
C1045      C1179   1.521       .  S
C1046      C1054   1.380       .  A
C1046      C1049   1.404       .  A
C1047      C1058   1.379       .  A
C1047      C1050   1.403       .  A
C1048      C1062   1.379       .  A
C1048      C1051   1.405       .  A
C1049      C1052   1.385       .  A
C1050      C1056   1.382       .  A
C1051      C1059   1.376       .  A
C1052      N1053   1.361   1_545  A
C1052      H1065   1.083   1_545  S
N1053      C1054   1.358   1_565  A
N1053      C1175   1.413       .  S
C1054      H1055   1.082       .  S
C1056      N1057   1.361       .  A
C1056      H1066   1.081       .  S
N1057      C1058   1.359       .  A
N1057      C1155   1.436       .  S
C1058      H1064   1.083       .  S
C1059      N1060   1.357       .  A
C1059      H1061   1.084       .  S
N1060      C1062   1.359       .  A
N1060      C1158   1.430       .  S
C1062      H1063   1.081       .  S
C1067      C1069   1.542       .  S
C1067      C1070   1.547       .  S
C1067      C1171   1.524       .  S
C1068      C1072   1.540   1_545  S
C1068      C1073   1.536   1_545  S
C1068      C1170   1.517       .  S
C1069      C1077   1.381       .  A
C1070      C1081   1.383       .  A
C1071      C1085   1.384       .  A
C1072      C1075   1.380       .  A
C1073      C1079   1.375       .  A
C1074      C1082   1.379       .  A
C1075      H1088   1.083       .  S
N1076      C1077   1.358       .  A
N1076      C1187   1.411       .  S
C1077      H1078   1.083       .  S
C1079      H1089   1.082       .  S
N1080      C1081   1.361       .  A
N1080      C1131   1.437       .  S
C1081      H1087   1.082       .  S
C1082      H1084   1.081       .  S
N1083      C1085   1.364       .  A
N1083      C1133   1.443       .  S
C1085      H1086   1.084       .  S
C1090      C1092   1.545       .  S
C1090      C1094   1.544       .  S
C1090      C1174   1.524       .  S
C1091      C1095   1.542       .  S
C1091      C1097   1.543       .  S
C1091      C1167   1.516       .  S
C1092      C1100   1.383       .  A
C1092      C1095   1.405       .  A
C1093      C1104   1.377       .  A
C1093      C1096   1.405       .  A
C1094      C1108   1.376       .  A
C1094      C1097   1.405       .  A
C1095      C1098   1.380       .  A
C1096      C1102   1.373       .  A
C1097      C1105   1.384       .  A
N1099      C1178   1.404       .  S
C1102      N1103   1.356       .  A
C1102      H1112   1.083       .  S
N1103      C1104   1.359       .  A
N1103      C1157   1.430       .  S
C1104      H1110   1.082       .  S
C1105      N1106   1.360       .  A
C1105      H1107   1.082       .  S
N1106      C1108   1.360       .  A
N1106      C1154   1.436       .  S
C1108      H1109   1.082       .  S
Zn1113     O1117   1.928       .  S
Zn1113     O1118   2.056       .  S
Zn1113     O1122   1.920       .  S
Zn1113     O1129   2.043       .  S
Zn1114     O1289   2.034   1_554  S
Zn1114     O1121   2.000       .  S
Zn1114     O1125   1.937       .  S
Zn1115     O1287   1.877       .  S
Zn1115     O1290   1.914       .  S
Zn1115     O1123   2.052       .  S
Zn1115     O1126   2.039       .  S
Zn1116     O1294   2.040   1_554  S
Zn1116     O1127   1.919       .  S
Zn1116     O1128   2.021       .  S
O1117     Zn1285   1.912       .  S
O1118      C1130   1.276       .  A
O1119     Zn1284   2.000       .  S
O1120     Zn1285   1.923       .  S
O1120      C1132   1.267       .  A
O1122      C1132   1.272       .  A
O1123      C1131   1.275       .  A
O1124     Zn1286   2.039       .  S
O1125      C1134   1.269       .  A
O1126      C1133   1.277       .  A
O1127      C1134   1.271       .  A
O1129      C1135   1.274       .  A
C1132      C1163   1.423       .  S
C1134      C1159   1.428       .  S
Zn1136     O1140   1.925       .  S
Zn1136     O1141   1.899       .  S
Zn1136     O1145   2.012       .  S
Zn1136     O1152   2.029       .  S
Zn1137     O1310   1.918       .  S
Zn1137     O1142   2.010       .  S
Zn1137     O1314   1.914       .  S
Zn1137     O1148   2.013       .  S
Zn1138     O1140   1.863       .  S
Zn1138     O1143   2.050       .  S
Zn1138     O1316   2.047   1_554  S
Zn1138     O1149   1.954       .  S
Zn1139     O1140   1.920       .  S
Zn1139     O1147   1.912       .  S
Zn1139     O1320   2.004   1_554  S
Zn1139     O1151   2.024       .  S
O1140     Zn1307   1.869       .  S
O1141      C1153   1.263       .  A
O1142      C1154   1.270       .  A
O1143      C1155   1.274       .  A
O1144     Zn1307   1.953       .  S
O1144      C1153   1.280       .  A
O1145      C1155   1.270       .  A
O1146     Zn1308   2.051       .  S
O1146      C1154   1.275       .  A
O1147      C1156   1.264       .  A
O1148      C1157   1.273       .  A
O1149      C1156   1.281       .  A
O1150     Zn1309   2.024       .  S
O1150      C1157   1.275       .  A
O1151      C1158   1.273       .  A
O1152      C1158   1.274       .  A
C1153      C1164   1.424       .  S
C1156      C1160   1.431       .  S
C1159      C1160   1.326       .  D
C1159      H1161   1.087       .  S
C1160      H1162   1.087       .  S
C1163      C1164   1.324       .  D
C1163      H1165   1.089       .  S
C1164      H1166   1.089       .  S
C1167      C1168   1.233       .  T
C1168      C1169   1.456   1_565  S
C1169      C1170   1.233       .  T
C1171      C1172   1.237       .  T
C1172      C1173   1.463       .  S
C1173      C1174   1.237       .  T
C1175      C1176   1.215       .  T
C1176      C1177   1.427       .  S
C1179      C1180   1.236       .  T
C1180      C1181   1.461       .  S
C1181      C1182   1.236       .  T
C1183      C1184   1.233       .  T
C1184      C1185   1.457       .  S
C1185      C1186   1.233       .  T
C1187      C1188   1.214       .  T
C1191      C1193   1.545       .  S
C1191      C1195   1.542   1_545  S
C1191      C1353   1.523       .  S
C1192      C1196   1.539       .  S
C1192      C1198   1.537   1_545  S
C1192      C1352   1.520       .  S
C1193      C1201   1.382       .  A
C1194      C1205   1.380       .  A
C1195      C1209   1.380       .  A
C1196      C1199   1.377       .  A
C1197      C1203   1.382       .  A
C1198      C1206   1.376       .  A
N1200      C1360   1.413       .  S
C1203      H1213   1.080       .  S
N1204      C1205   1.360       .  A
N1204      C1305   1.437       .  S
C1205      H1211   1.085       .  S
C1206      H1208   1.083       .  S
N1207      C1209   1.358       .  A
N1207      C1300   1.431       .  S
C1209      H1210   1.082       .  S
C1214      C1216   1.544       .  S
C1214      C1217   1.550   1_545  S
C1214      C1356   1.522       .  S
C1215      C1219   1.551       .  S
C1215      C1220   1.542   1_545  S
C1215      C1349   1.520       .  S
C1216      C1224   1.383       .  A
C1216      C1219   1.404       .  A
C1217      C1228   1.386       .  A
C1217      C1220   1.404       .  A
C1218      C1232   1.387       .  A
C1218      C1221   1.403       .  A
C1219      C1222   1.387       .  A
C1220      C1226   1.381       .  A
C1221      C1229   1.373       .  A
C1222      N1223   1.363       .  A
C1222      H1235   1.083       .  S
N1223      C1224   1.360       .  A
N1223      C1345   1.418       .  S
C1224      H1225   1.082       .  S
C1226      N1227   1.359       .  A
C1226      H1236   1.082       .  S
N1227      C1228   1.362       .  A
N1227      C1325   1.439       .  S
C1228      H1234   1.083       .  S
C1229      N1230   1.358       .  A
C1229      H1231   1.084       .  S
N1230      C1232   1.362       .  A
N1230      C1328   1.436       .  S
C1232      H1233   1.080       .  S
C1237      C1239   1.542       .  S
C1237      C1240   1.548       .  S
C1237      C1341   1.523       .  S
C1238      C1242   1.544       .  S
C1238      C1243   1.538       .  S
C1238      C1340   1.522       .  S
C1239      C1247   1.381       .  A
C1240      C1251   1.384       .  A
C1241      C1255   1.372       .  A
C1242      C1245   1.380       .  A
C1243      C1249   1.376       .  A
C1244      C1252   1.381       .  A
C1245      H1258   1.083       .  S
N1246      C1247   1.359       .  A
N1246      C1357   1.412   1_565  S
C1247      H1248   1.082       .  S
C1249      H1259   1.085       .  S
N1250      C1251   1.364       .  A
N1250      C1301   1.440       .  S
C1251      H1257   1.080       .  S
C1252      H1254   1.082       .  S
N1253      C1255   1.357       .  A
N1253      C1303   1.430       .  S
C1255      H1256   1.083       .  S
C1260      C1262   1.548       .  S
C1260      C1264   1.548   1_545  S
C1260      C1344   1.522       .  S
C1261      C1265   1.546       .  S
C1261      C1267   1.541   1_545  S
C1261      C1337   1.522   1_545  S
C1262      C1270   1.387       .  A
C1262      C1265   1.403       .  A
C1263      C1274   1.384       .  A
C1263      C1266   1.408       .  A
C1264      C1278   1.384       .  A
C1264      C1267   1.402       .  A
C1265      C1268   1.384       .  A
C1266      C1272   1.378       .  A
C1267      C1275   1.381       .  A
N1269      C1348   1.410       .  S
C1272      N1273   1.358       .  A
C1272      H1282   1.082       .  S
N1273      C1274   1.360       .  A
N1273      C1327   1.437       .  S
C1274      H1280   1.082       .  S
C1275      N1276   1.362       .  A
C1275      H1277   1.079       .  S
N1276      C1278   1.363       .  A
N1276      C1324   1.445       .  S
C1278      H1279   1.086       .  S
Zn1283     O1287   1.933       .  S
Zn1283     O1288   2.030       .  S
Zn1283     O1292   1.913       .  S
Zn1283     O1299   2.019       .  S
Zn1284     O1291   2.016   1_655  S
Zn1284     O1295   1.914       .  S
Zn1285     O1293   2.045   1_554  S
Zn1285     O1296   2.003   1_554  S
Zn1286     O1297   1.934       .  S
Zn1286     O1298   2.049       .  S
O1288      C1300   1.273       .  A
O1290      C1302   1.275       .  A
O1292      C1302   1.265       .  A
O1293      C1301   1.276       .  A
O1295      C1304   1.264       .  A
O1296      C1303   1.271       .  A
O1297      C1304   1.278       .  A
O1299      C1305   1.271       .  A
C1302      C1333   1.422       .  S
C1304      C1329   1.427       .  S
Zn1306     O1310   1.929       .  S
Zn1306     O1311   1.901       .  S
Zn1306     O1315   2.045       .  S
Zn1306     O1322   2.056       .  S
Zn1307     O1312   2.055   1_554  S
Zn1307     O1318   2.063   1_554  S
Zn1308     O1310   1.922       .  S
Zn1308     O1313   2.033       .  S
Zn1308     O1319   1.910       .  S
Zn1309     O1310   1.910       .  S
Zn1309     O1317   1.928       .  S
Zn1309     O1321   2.006       .  S
O1311      C1323   1.270       .  A
O1312      C1324   1.282       .  A
O1313      C1325   1.273       .  A
O1314      C1323   1.265       .  A
O1315      C1325   1.274       .  A
O1316      C1324   1.282       .  A
O1317      C1326   1.268       .  A
O1318      C1327   1.277       .  A
O1319      C1326   1.270       .  A
O1320      C1327   1.271       .  A
O1321      C1328   1.270       .  A
O1322      C1328   1.275       .  A
C1323      C1334   1.421       .  S
C1326      C1330   1.425       .  S
C1329      C1330   1.327       .  D
C1329      H1331   1.086       .  S
C1330      H1332   1.087       .  S
C1333      C1334   1.328       .  D
C1333      H1335   1.086       .  S
C1334      H1336   1.087       .  S
C1337      C1338   1.236       .  T
C1338      C1339   1.461       .  S
C1339      C1340   1.236       .  T
C1341      C1342   1.237       .  T
C1342      C1343   1.462   1_565  S
C1343      C1344   1.237       .  T
C1345      C1346   1.220       .  T
C1346      C1347   1.435       .  S
C1349      C1350   1.235       .  T
C1350      C1351   1.460       .  S
C1351      C1352   1.235       .  T
C1353      C1354   1.237       .  T
C1354      C1355   1.462       .  S
C1355      C1356   1.236       .  T
C1357      C1358   1.215       .  T
