geometry optimzed in LAMMPS
_audit_creation_date              2020-11-30 
_audit_creation_method            'lammps2cif' 
_symmetry_space_group_name_H-M    'P1' 
_symmetry_Int_Tables_number       1 
_symmetry_cell_setting            triclinic 
loop_ 
_symmetry_equiv_pos_as_xyz 
  x,y,z 
_cell_length_a                    41.62677219 
_cell_length_b                    41.67881285789214 
_cell_length_c                    38.01295348272378 
_cell_angle_alpha                 89.10881032223729 
_cell_angle_beta                  91.10799947350063 
_cell_angle_gamma                 118.88874655264043 
loop_ 
_atom_site_label 
_atom_site_type_symbol 
_atom_site_fract_x 
_atom_site_fract_y 
_atom_site_fract_z 
_atom_site_charge 
O1          O  0.30337030  0.26703911  0.46288301    -0.74200
O2          O  0.23235866  0.19799844  0.02815165    -0.74300
O3          O  0.24033939  0.20346635  0.45711913    -0.74300
O4          O  0.29610985  0.26182875  0.03559253    -0.74400
O5          O  0.26539535  0.29316648  0.03443218    -0.74300
O6          O  0.20792036  0.23326440  0.45760631    -0.74300
O7          O  0.20186351  0.22955662  0.02778076    -0.74300
O8          O  0.27120384  0.29690608  0.46241345    -0.74300
Ni9        Ni  0.27041202  0.23102734  0.49586839     1.25400
Ni10       Ni  0.23474873  0.26492189  0.99561610     1.25400
C11         C  0.29751268  0.29270301  0.45068296     0.87900
C12         C  0.20519526  0.20198357  0.03813663     0.87900
C13         C  0.21461998  0.20892506  0.44468033     0.87900
C14         C  0.29004592  0.28664956  0.04831955     0.88100
O15         O  0.01462705  0.28015555  0.46160735    -0.74200
O16         O  0.01132453  0.22475697  0.04506397    -0.74300
O17         O  0.01193336  0.21484625  0.47526550    -0.74300
O18         O  0.01522948  0.28966228  0.03117041    -0.74400
O19         O  0.45412588  0.26269149  0.03121173    -0.74300
O20         O  0.45095311  0.18761406  0.47249802    -0.74300
O21         O  0.45016573  0.19651795  0.04258740    -0.74300
O22         O  0.45359439  0.25385655  0.46095268    -0.74300
Ni23       Ni  0.01558351  0.25265792  0.00302562     1.25400
Ni24       Ni  0.45018938  0.22378545  0.00144238     1.25400
C25         C  0.98469748  0.27683265  0.44814855     0.87900
C26         C  0.98007750  0.20233303  0.05805720     0.87900
C27         C  0.98129894  0.18852204  0.46469399     0.87900
C28         C  0.98555284  0.28834678  0.04144685     0.88100
O29         O  0.26896936  0.47273273  0.45923696    -0.74200
O30         O  0.21076603  0.47192784  0.03807554    -0.74300
O31         O  0.20715755  0.47798788  0.46563710    -0.74300
O32         O  0.27282735  0.46709457  0.02858977    -0.74400
O33         O  0.30777245  0.02757340  0.03099617    -0.74300
O34         O  0.23906801  0.04106613  0.47100236    -0.74300
O35         O  0.24534279  0.03247200  0.04086846    -0.74300
O36         O  0.30101162  0.03731393  0.46127270    -0.74300
Ni37       Ni  0.23714383  0.47002738  0.99811227     1.25400
Ni38       Ni  0.27370276  0.03413957  0.00080442     1.25400
C39         C  0.29429197  0.00675877  0.44774917     0.87900
C40         C  0.21927894  0.00228715  0.05271059     0.87900
C41         C  0.21221079  0.01187256  0.45820695     0.87900
C42         C  0.30259605  0.99564413  0.04001000     0.88100
C43         C  0.00635348  0.45717153  0.24687062    -0.02300
C44         C  0.50149915  0.04474470  0.25531213    -0.02300
C45         C  0.04579378  0.04777020  0.24453420    -0.02300
C46         C  0.04736428  0.50305147  0.24481944    -0.02300
C47         C  0.45953946  0.49886908  0.24835657    -0.02300
C48         C  0.46125629  0.45521019  0.24825875    -0.02300
C49         C  0.34563221  0.46168779  0.10752259    -0.27400
C50         C  0.38236183  0.99081983  0.11042484     0.02200
C51         C  0.39390739  0.01691489  0.08290327     0.30300
C52         C  0.36778759  0.01798552  0.05961523    -0.19200
C53         C  0.33036760  0.99201962  0.06217605    -0.28600
C54         C  0.31976544  0.46193642  0.08366722     0.44300
C55         C  0.40390644  0.99703044  0.14396325     0.05500
O56         O  0.43005385  0.04270048  0.07961798    -0.57100
H57         H  0.37671129  0.03957940  0.03994196     0.18400
O58         O  0.28416795  0.43416297  0.08519057    -0.63800
H59         H  0.33637170  0.44047583  0.12753365     0.16900
C60         C  0.38734055  0.99705893  0.17512609     0.29100
C61         C  0.40596900  0.00175252  0.20686690    -0.24700
C62         C  0.43974687  0.50067876  0.21037149    -0.24000
C63         C  0.45791120  0.50725993  0.17795829     0.40600
C64         C  0.44016756  0.50485619  0.14438251    -0.26500
O65         O  0.35442405  0.99738943  0.17471977    -0.58400
H66         H  0.39385019  0.01201596  0.22443188     0.16200
O67         O  0.49122644  0.50913246  0.17899166    -0.59800
H68         H  0.45442962  0.50704914  0.12018719     0.14700
H69         H  0.27190166  0.44262945  0.10192712     0.46500
H70         H  0.33662085  0.97397623  0.18596630     0.41900
H71         H  0.49852354  0.50974146  0.15416984     0.45300
H72         H  0.44075472  0.03127989  0.06440664     0.36800
C73         C  0.34369275  0.02753228  0.36120483    -0.27400
C74         C  0.36310866  0.50398332  0.36531662     0.02200
C75         C  0.36046192  0.48497254  0.39731887     0.30300
C76         C  0.33705510  0.48419134  0.42342636    -0.19200
C77         C  0.31667604  0.00661169  0.41866512    -0.28600
C78         C  0.32133171  0.02776119  0.38810540     0.44300
C79         C  0.38591487  0.50351613  0.33618976     0.05500
O80         O  0.38137248  0.46816573  0.40429032    -0.57100
H81         H  0.33514854  0.46958268  0.44782059     0.18400
O82         O  0.30413861  0.04861969  0.38431258    -0.63800
H83         H  0.34703120  0.04376415  0.33764947     0.16900
C84         C  0.37096538  0.49092355  0.30310867     0.29100
C85         C  0.39197017  0.48597525  0.27757096    -0.24700
C86         C  0.43061619  0.49684566  0.28072658    -0.24000
C87         C  0.43973597  0.00333212  0.31993860     0.40600
C88         C  0.42048096  0.01212719  0.34411224    -0.26500
O89         O  0.33451188  0.47955746  0.29635406    -0.58400
H90         H  0.37407937  0.47001340  0.25700027     0.16200
O91         O  0.46413769  0.99542237  0.33583639    -0.59800
H92         H  0.43102483  0.01868088  0.37085096     0.14700
H93         H  0.27883337  0.03139340  0.37620114     0.46500
H94         H  0.33422668  0.49873421  0.28077243     0.41900
H95         H  0.47894676  0.99732670  0.31641626     0.45300
H96         H  0.37716963  0.45129509  0.38458325     0.36800
C97         C  0.09103244  0.51134122  0.34303954    -0.27400
C98         C  0.12506814  0.01737152  0.33943781     0.02200
C99         C  0.13712819  0.01874154  0.30525881     0.30300
C100        C  0.11367953  0.01411055  0.27628479    -0.19200
C101        C  0.07581534  0.50715733  0.27844193    -0.28600
C102        C  0.06635121  0.50470150  0.31504428     0.44300
C103        C  0.14698878  0.01737794  0.37082692     0.05500
O104        O  0.17158249  0.02338576  0.29962117    -0.57100
H105        H  0.12769491  0.01804020  0.25189222     0.18400
O106        O  0.03125500  0.48811034  0.32536733    -0.63800
H107        H  0.08111766  0.50839647  0.36971768     0.16900
C108        C  0.18049361  0.04814289  0.38011380     0.29100
C109        C  0.20071862  0.04657333  0.40949861    -0.24700
C110        C  0.18965113  0.51323079  0.42753155    -0.24000
C111        C  0.15416280  0.48419091  0.42024103     0.40600
C112        C  0.13398678  0.48635946  0.39130346    -0.26500
O113        O  0.19381004  0.07978906  0.36057879    -0.58400
H114        H  0.22692034  0.07025807  0.41551556     0.16200
O115        O  0.13862015  0.45371539  0.44154562    -0.59800
H116        H  0.10689575  0.46360651  0.38609102     0.14700
H117        H  0.01844283  0.48669782  0.30354113     0.46500
H118        H  0.18661650  0.09577373  0.37350019     0.41900
H119        H  0.14141961  0.43461720  0.42884612     0.45300
H120        H  0.18663560  0.04949632  0.29276719     0.36800
C121        C  0.11564542  0.02674253  0.16311566    -0.27400
C122        C  0.12747915  0.50032454  0.16734487     0.02200
C123        C  0.10941915  0.47205867  0.19161301     0.30300
C124        C  0.08294020  0.47268364  0.21340316    -0.19200
C125        C  0.07137052  0.49995852  0.21194482    -0.28600
C126        C  0.08401045  0.02167418  0.18046064     0.44300
C127        C  0.15251595  0.49917377  0.14076133     0.05500
O128        O  0.11898872  0.44499263  0.19588918    -0.57100
H129        H  0.07319059  0.45260041  0.23325078     0.18400
O130        O  0.05929228  0.02408118  0.15834832    -0.63800
H131        H  0.12425232  0.04442509  0.14019281     0.16900
C132        C  0.13969472  0.47017384  0.11662801     0.29100
C133        C  0.16205907  0.47100537  0.08928272    -0.24700
C134        C  0.19705578  0.50127765  0.08443419    -0.24000
C135        C  0.20766842  0.03379143  0.10400635     0.40600
C136        C  0.18561997  0.03268165  0.13199944    -0.26500
O137        O  0.10448194  0.44183929  0.11830395    -0.58400
H138        H  0.15122004  0.44846342  0.07088773     0.16200
O139        O  0.23869297  0.06610386  0.09672615    -0.59800
H140        H  0.19356164  0.05732587  0.14704836     0.14700
H141        H  0.05562742  0.00837388  0.13761129     0.46500
H142        H  0.08925470  0.45067930  0.10549205     0.41900
H143        H  0.25840171  0.06546343  0.11128844     0.45300
H144        H  0.09759112  0.42231193  0.18710149     0.36800
C145        C  0.00201885  0.37618171  0.18416993    -0.27400
C146        C  0.99882814  0.38840708  0.15094353     0.02200
C147        C  0.50276599  0.42342558  0.14783545     0.29100
C148        C  0.50711555  0.44394543  0.17826876    -0.19200
C149        C  0.00682100  0.43211087  0.21302272    -0.28600
C150        C  0.01063716  0.39876493  0.21353134     0.44300
C151        C  0.99695953  0.36618327  0.12014613     0.05500
O152        O  0.50254706  0.43815670  0.11537530    -0.57100
H153        H  0.51121130  0.47004340  0.17476176     0.18400
O154        O  0.02575630  0.38853631  0.24101115    -0.63800
H155        H  0.00187183  0.35018061  0.18707547     0.16900
C156        C  0.02339723  0.35459428  0.11655773     0.29100
C157        C  0.01905411  0.32970865  0.09037620    -0.24700
C158        C  0.98875997  0.31590471  0.06725682    -0.24000
C159        C  0.46266000  0.32804577  0.07021461     0.40600
C160        C  0.46721199  0.35356172  0.09628062    -0.26500
O161        O  0.05243924  0.36599393  0.13994044    -0.58400
H162        H  0.03914218  0.32030117  0.08893481     0.16200
O163        O  0.43306656  0.31560780  0.04761211    -0.59800
H164        H  0.44679877  0.36240561  0.09873525     0.14700
H165        H  0.04862995  0.38974305  0.23223699     0.46500
H166        H  0.07468733  0.37305166  0.12581185     0.41900
H167        H  0.41232914  0.29613077  0.06083567     0.45300
H168        H  0.52770711  0.44749437  0.10632794     0.36800
C169        C  0.46295451  0.33643831  0.38610413    -0.27400
C170        C  0.99291185  0.35044463  0.36347912     0.02200
C171        C  0.01966722  0.33910796  0.36814801     0.30300
C172        C  0.01637655  0.31471869  0.39538773    -0.19200
C173        C  0.98634065  0.30075133  0.41814260    -0.28600
C174        C  0.45941452  0.31179951  0.41317934     0.44300
C175        C  0.99638875  0.37715921  0.33539398     0.05500
O176        O  0.04933075  0.35189187  0.34640114    -0.57100
H177        H  0.03743262  0.30669056  0.39870562     0.18400
O178        O  0.43018764  0.29973258  0.43538403    -0.63800
H179        H  0.44287447  0.34557611  0.38350653     0.16900
C180        C  0.47102875  0.36759381  0.30767345     0.29100
C181        C  0.47717853  0.39287930  0.28011924    -0.24700
C182        C  0.00740986  0.42905268  0.27816489    -0.24000
C183        C  0.03653371  0.43044802  0.30102571     0.40600
C184        C  0.02883339  0.40989346  0.33233149    -0.26500
O185        O  0.44134832  0.33311316  0.30608273    -0.58400
H186        H  0.46151504  0.38267412  0.25708575     0.16200
O187        O  0.07184606  0.44366180  0.29045267    -0.59800
H188        H  0.05114108  0.41559614  0.35073350     0.14700
H189        H  0.43757795  0.31923721  0.45324326     0.46500
H190        H  0.44927251  0.31881804  0.29137695     0.41900
H191        H  0.07602888  0.42233529  0.28749426     0.45300
H192        H  0.04030024  0.33642339  0.32509648     0.36800
C193        C  0.01550581  0.13385815  0.41299317    -0.27400
C194        C  0.48495238  0.11250140  0.39162159     0.02200
C195        C  0.45162593  0.11237778  0.39783347     0.30300
C196        C  0.45007025  0.13576479  0.42309345    -0.19200
C197        C  0.98159126  0.15962982  0.44239799    -0.28600
C198        C  0.01398753  0.15697805  0.43839690     0.44300
C199        C  0.48990802  0.09576098  0.35942964     0.05500
O200        O  0.42070987  0.08999503  0.37870225    -0.57100
H201        H  0.42457183  0.13637522  0.42631608     0.18400
O202        O  0.04494073  0.17795216  0.45811184    -0.63800
H203        H  0.04132984  0.13424814  0.40865713     0.16900
C204        C  0.98505751  0.10794131  0.32680590     0.29100
C205        C  0.99244703  0.09464475  0.29640814    -0.24700
C206        C  0.50156734  0.06503975  0.29427394    -0.24000
C207        C  0.51562852  0.06215301  0.32890523     0.40600
C208        C  0.50678584  0.07408661  0.36032522    -0.26500
O209        O  0.97618343  0.13566286  0.32401428    -0.58400
H210        H  0.99362859  0.11208529  0.27504521     0.16200
O211        O  0.53926605  0.04885059  0.33304938    -0.59800
H212        H  0.51535024  0.06802517  0.38552621     0.14700
H213        H  0.04322017  0.16258511  0.47893120     0.46500
H214        H  0.99986512  0.15870287  0.32604007     0.41900
H215        H  0.55890701  0.06455320  0.34991534     0.45300
H216        H  0.41582047  0.10647639  0.36309143     0.36800
C217        C  0.45504350  0.09613151  0.20093865    -0.27400
C218        C  0.98462640  0.12470127  0.18386967     0.02200
C219        C  0.01970290  0.13292808  0.19611012     0.30300
C220        C  0.02403068  0.10978484  0.22051656    -0.19200
C221        C  0.49514782  0.07396813  0.22996487    -0.28600
C222        C  0.46067983  0.07437851  0.22651140     0.44300
C223        C  0.97901552  0.14581788  0.15426975     0.05500
O224        O  0.05062704  0.16267175  0.18368395    -0.57100
H225        H  0.05182900  0.11984416  0.22775786     0.18400
O226        O  0.43533291  0.05998370  0.25283003    -0.63800
H227        H  0.42778287  0.09292557  0.19725835     0.16900
C228        C  0.45249760  0.12772560  0.12739662     0.29100
C229        C  0.45239857  0.14661307  0.09659152    -0.24700
C230        C  0.97856844  0.18351049  0.09175730    -0.24000
C231        C  0.00270924  0.20246472  0.11970272     0.40600
C232        C  0.00234546  0.18384369  0.15076669    -0.26500
O233        O  0.42683738  0.09145240  0.13044064    -0.58400
H234        H  0.43265130  0.13197409  0.07585799     0.16200
O235        O  0.02688057  0.23925154  0.11693147    -0.59800
H236        H  0.02096501  0.19928246  0.17190596     0.14700
H237        H  0.42932274  0.07917944  0.26031633     0.46500
H238        H  0.44100635  0.07806627  0.13251323     0.41900
H239        H  0.01257921  0.25165896  0.12312907     0.45300
H240        H  0.05505527  0.15496126  0.16060320     0.36800
C241        C  0.33430747  0.35966727  0.11922218    -0.27400
C242        C  0.35637106  0.34787871  0.13750794     0.02200
C243        C  0.35477355  0.31470709  0.12774160     0.30300
C244        C  0.33280500  0.29496769  0.09901159    -0.19200
C245        C  0.31182497  0.30758303  0.07961441    -0.28600
C246        C  0.31230961  0.34004019  0.09053769     0.44300
C247        C  0.38308104  0.37213148  0.16453554     0.05500
O248        O  0.37499413  0.30161717  0.14569616    -0.57100
H249        H  0.33251525  0.26980298  0.09173849     0.18400
O250        O  0.29193100  0.35327992  0.07313688    -0.63800
H251        H  0.33476471  0.38473999  0.12686080     0.16900
C252        C  0.40855472  0.40771023  0.15619382     0.29100
C253        C  0.43368979  0.43038467  0.18149624    -0.24700
C254        C  0.43526028  0.42260127  0.21784024    -0.24000
C255        C  0.40969981  0.38273008  0.22411063     0.40600
C256        C  0.38472095  0.35967680  0.19804147    -0.26500
O257        O  0.41082246  0.42052146  0.12228358    -0.58400
H258        H  0.45448194  0.45182406  0.16871714     0.16200
O259        O  0.40365645  0.36578807  0.25665109    -0.59800
H260        H  0.36514922  0.33162469  0.20483393     0.14700
H261        H  0.30896899  0.37164201  0.05614523     0.46500
H262        H  0.42547145  0.41157247  0.10952185     0.41900
H263        H  0.40249281  0.34160038  0.25361529     0.45300
H264        H  0.39864264  0.31189536  0.13323825     0.36800
C265        C  0.37114550  0.39810564  0.30825280    -0.27400
C266        C  0.38529500  0.39140539  0.33912250     0.02200
C267        C  0.42321855  0.40794212  0.34307162     0.30300
C268        C  0.44617691  0.42775613  0.31544785    -0.19200
C269        C  0.43409937  0.43337322  0.28169901    -0.28600
C270        C  0.39376130  0.41799406  0.28007042     0.44300
C271        C  0.36093625  0.36513833  0.36624536     0.05500
O272        O  0.43869856  0.40502530  0.37433403    -0.57100
H273        H  0.47396276  0.43905719  0.32277568     0.18400
O274        O  0.37375590  0.41521431  0.24971667    -0.63800
H275        H  0.34163923  0.38523159  0.30460506     0.16900
C276        C  0.33187708  0.36819748  0.38119271     0.29100
C277        C  0.31199034  0.34460245  0.40886265    -0.24700
C278        C  0.32008985  0.31740426  0.42181714    -0.24000
C279        C  0.34759390  0.31293173  0.40510654     0.40600
C280        C  0.36740363  0.33647799  0.37754130    -0.26500
O281        O  0.32193495  0.39310016  0.36796404    -0.58400
H282        H  0.28983943  0.34758654  0.42001679     0.16200
O283        O  0.35527684  0.28560170  0.41517386    -0.59800
H284        H  0.38757501  0.33196255  0.36429443     0.14700
H285        H  0.38833078  0.43547785  0.23356456     0.46500
H286        H  0.31646068  0.40412404  0.38838387     0.41900
H287        H  0.33971654  0.26460922  0.39972185     0.45300
H288        H  0.43799645  0.42349949  0.38996542     0.36800
C289        C  0.18735520  0.16684459  0.35438772    -0.27400
C290        C  0.14954518  0.14356465  0.35839984     0.02200
C291        C  0.13351366  0.14139223  0.39130863     0.30300
C292        C  0.15488700  0.16338668  0.41913067    -0.19200
C293        C  0.19251263  0.18675564  0.41494150    -0.28600
C294        C  0.20890484  0.18808490  0.38255748     0.44300
C295        C  0.12664882  0.12281138  0.32788714     0.05500
O296        O  0.09699690  0.11776511  0.39653594    -0.57100
H297        H  0.14220791  0.16171732  0.44421943     0.18400
O298        O  0.24561025  0.21135797  0.37776455    -0.63800
H299        H  0.20004963  0.16903504  0.32921051     0.16900
C300        C  0.09840295  0.12874490  0.31537131     0.29100
C301        C  0.07605202  0.10765162  0.28751634    -0.24700
C302        C  0.07726610  0.07660018  0.27286080    -0.24000
C303        C  0.11474873  0.08275502  0.27796516     0.40600
C304        C  0.13585531  0.10103716  0.30772042    -0.26500
O305        O  0.09338941  0.15635162  0.32891951    -0.58400
H306        H  0.05754921  0.11682967  0.27938932     0.16200
O307        O  0.13553602  0.07980279  0.25173088    -0.59800
H308        H  0.16189067  0.10169683  0.31240343     0.14700
H309        H  0.25775830  0.19632022  0.38274276     0.46500
H310        H  0.07117617  0.14397231  0.34358294     0.41900
H311        H  0.11922647  0.06297281  0.23380349     0.45300
H312        H  0.09602734  0.09521841  0.40659588     0.36800
C313        C  0.15214097  0.12052092  0.09926130    -0.27400
C314        C  0.12425634  0.12754205  0.11071324     0.02200
C315        C  0.12211306  0.15787702  0.09671204     0.30300
C316        C  0.14810118  0.18109303  0.07254595    -0.19200
C317        C  0.17686556  0.17491739  0.06190660    -0.28600
C318        C  0.17809702  0.14364015  0.07486465     0.44300
C319        C  0.10287293  0.10799915  0.14215028     0.05500
O320        O  0.09699981  0.16718729  0.10902790    -0.57100
H321        H  0.14631908  0.20486285  0.06315000     0.18400
O322        O  0.20548742  0.13630350  0.06536073    -0.63800
H323        H  0.15489706  0.09796466  0.11042693     0.16900
C324        C  0.06470386  0.09097106  0.14332909     0.29100
C325        C  0.04668138  0.07538365  0.17526598    -0.24700
C326        C  0.06489571  0.07348172  0.20761460    -0.24000
C327        C  0.10237491  0.10416397  0.20546405     0.40600
C328        C  0.12162537  0.11397169  0.17380980    -0.26500
O329        O  0.04448646  0.08910643  0.11373883    -0.58400
H330        H  0.01855666  0.06821605  0.17318503     0.16200
O331        O  0.11603019  0.13199725  0.22978214    -0.59800
H332        H  0.15074408  0.13342836  0.17433933     0.14700
H333        H  0.19500787  0.11879472  0.04560618     0.46500
H334        H  0.03678763  0.06458973  0.10369830     0.41900
H335        H  0.14282095  0.14112572  0.23265364     0.45300
H336        H  0.07837852  0.16074390  0.08992743     0.36800
O337        O  0.30184022  0.26875653  0.96382195    -0.74200
O338        O  0.23430794  0.19706819  0.52813892    -0.74300
O339        O  0.23934786  0.20476472  0.95730077    -0.74300
O340        O  0.29871731  0.26069403  0.53476197    -0.74400
O341        O  0.26838476  0.29240880  0.53391187    -0.74300
O342        O  0.20638834  0.23401219  0.95727892    -0.74300
O343        O  0.20425965  0.22905424  0.52821179    -0.74300
O344        O  0.26921376  0.29815520  0.96282823    -0.74300
Ni345      Ni  0.26868360  0.23235244  0.99636174     1.25400
Ni346      Ni  0.23698335  0.26409841  0.49560818     1.25400
C347        C  0.29578409  0.29421619  0.95140132     0.87900
C348        C  0.20741176  0.20134196  0.53846934     0.87900
C349        C  0.21345727  0.20979793  0.94461657     0.87900
C350        C  0.29322786  0.28594147  0.54737431     0.88100
O351        O  0.01528648  0.27923646  0.96128191    -0.74200
O352        O  0.01117401  0.22591655  0.54518795    -0.74300
O353        O  0.01210194  0.21358518  0.97499504    -0.74300
O354        O  0.01452602  0.29063597  0.53150560    -0.74400
O355        O  0.45341358  0.26350557  0.53145016    -0.74300
O356        O  0.45116416  0.18683034  0.97200739    -0.74300
O357        O  0.45000401  0.19749468  0.54299482    -0.74300
O358        O  0.45427861  0.25335543  0.96082667    -0.74300
Ni359      Ni  0.01514036  0.25377299  0.50329346     1.25400
Ni360      Ni  0.44972492  0.22455953  0.50176737     1.25400
C361        C  0.98540130  0.27631731  0.94807088     0.87900
C362        C  0.98003925  0.20332034  0.55823164     0.87900
C363        C  0.98140011  0.18750530  0.96420976     0.87900
C364        C  0.98479146  0.28917992  0.54180964     0.88100
O365        O  0.26599426  0.47247426  0.95866955    -0.74200
O366        O  0.21179363  0.47308049  0.53689113    -0.74300
O367        O  0.20418930  0.47712683  0.96714877    -0.74300
O368        O  0.27397346  0.46758328  0.52932895    -0.74400
O369        O  0.31029125  0.03252832  0.53123340    -0.74300
O370        O  0.23795245  0.03617392  0.96946452    -0.74300
O371        O  0.24752844  0.03682134  0.54246240    -0.74300
O372        O  0.29944346  0.03158210  0.96088274    -0.74300
Ni373      Ni  0.23915342  0.47072371  0.49777155     1.25400
Ni374      Ni  0.27553756  0.03915410  0.50177923     1.25400
C375        C  0.29260553  0.00085830  0.94769513     0.87900
C376        C  0.22165809  0.00638564  0.55410280     0.87900
C377        C  0.21106526  0.00703343  0.95676223     0.87900
C378        C  0.30536384  0.00050887  0.53965380     0.88100
C379        C  0.00611294  0.45798976  0.74788004    -0.02300
C380        C  0.50143006  0.04386008  0.75462308    -0.02300
C381        C  0.04577502  0.04680956  0.74442117    -0.02300
C382        C  0.04716349  0.50382149  0.74537912    -0.02300
C383        C  0.45896739  0.49941214  0.74981785    -0.02300
C384        C  0.46087373  0.45590819  0.74933035    -0.02300
C385        C  0.34621688  0.46114038  0.60817740    -0.27400
C386        C  0.38526012  0.99339488  0.60836962     0.02200
C387        C  0.39699295  0.02010068  0.58138459     0.30300
C388        C  0.37089724  0.02209129  0.55862799    -0.19200
C389        C  0.33335382  0.99635771  0.56114616    -0.28600
C390        C  0.32028762  0.46231428  0.58503163     0.44300
C391        C  0.40623132  0.99893306  0.64217758     0.05500
O392        O  0.43330482  0.04545883  0.57811710    -0.57100
H393        H  0.37992770  0.04412527  0.53942345     0.18400
O394        O  0.28417129  0.43609218  0.58798749    -0.63800
H395        H  0.33670438  0.44009122  0.62838299     0.16900
C396        C  0.38921468  0.99878604  0.67311899     0.29100
C397        C  0.40679654  0.00189215  0.70523162    -0.24700
C398        C  0.43962185  0.50104199  0.71155544    -0.24000
C399        C  0.45836321  0.50777863  0.67951719     0.40600
C400        C  0.44097357  0.50479640  0.64558717    -0.26500
O401        O  0.35684029  0.00020594  0.67222186    -0.58400
H402        H  0.39429614  0.01154104  0.72297732     0.16200
O403        O  0.49188226  0.51010644  0.68133883    -0.59800
H404        H  0.45566599  0.50695078  0.62170226     0.14700
H405        H  0.27428729  0.44486204  0.60689279     0.46500
H406        H  0.33828578  0.97679271  0.68288320     0.41900
H407        H  0.49965529  0.51102937  0.65666819     0.45300
H408        H  0.44347908  0.03413524  0.56213939     0.36800
C409        C  0.34139635  0.02108206  0.86104854    -0.27400
C410        C  0.35957235  0.50552082  0.86368736     0.02200
C411        C  0.35543589  0.48448716  0.89458754     0.30300
C412        C  0.33195878  0.48315673  0.92082466    -0.19200
C413        C  0.31503070  0.00056872  0.91874611    -0.28600
C414        C  0.31832343  0.02043497  0.88759177     0.44300
C415        C  0.38352776  0.50626069  0.83507776     0.05500
O416        O  0.37507910  0.46615819  0.90034387    -0.57100
H417        H  0.32926497  0.46726087  0.94451038     0.18400
O418        O  0.29919585  0.03933889  0.88291302    -0.63800
H419        H  0.34375314  0.03651631  0.83714112     0.16900
C420        C  0.36942147  0.49288584  0.80200746     0.29100
C421        C  0.39087677  0.48672593  0.77782336    -0.24700
C422        C  0.42948736  0.49755812  0.78192255    -0.24000
C423        C  0.43966166  0.00090213  0.81848693     0.40600
C424        C  0.42005601  0.00806995  0.84362472    -0.26500
O425        O  0.33324192  0.48179707  0.79411033    -0.58400
H426        H  0.37338580  0.47023409  0.75730861     0.16200
O427        O  0.46517573  0.99383551  0.83304480    -0.59800
H428        H  0.43099989  0.01427890  0.87023625     0.14700
H429        H  0.27386331  0.02057762  0.87639615     0.46500
H430        H  0.33363009  0.50118500  0.77837133     0.41900
H431        H  0.47968537  0.99655809  0.81284170     0.45300
H432        H  0.37055185  0.45028890  0.87969686     0.36800
C433        C  0.08841113  0.51095299  0.84365864    -0.27400
C434        C  0.12484520  0.01457087  0.83867514     0.02200
C435        C  0.13661658  0.01621813  0.80439811     0.30300
C436        C  0.11313943  0.01240442  0.77578488    -0.19200
C437        C  0.07512899  0.50770372  0.77893368    -0.28600
C438        C  0.06466362  0.50508577  0.81497896     0.44300
C439        C  0.14676633  0.01383940  0.86961484     0.05500
O440        O  0.17077198  0.02025529  0.79829008    -0.57100
H441        H  0.12717097  0.01680605  0.75135706     0.18400
O442        O  0.02916400  0.48899794  0.82371701    -0.63800
H443        H  0.07772110  0.50753238  0.87005351     0.16900
C444        C  0.18107844  0.04383151  0.87816354     0.29100
C445        C  0.20117841  0.04173809  0.90731802    -0.24700
C446        C  0.18596185  0.51235349  0.92970089    -0.24000
C447        C  0.15154303  0.48241200  0.92066481     0.40600
C448        C  0.13164189  0.48484215  0.89159578    -0.26500
O449        O  0.19521630  0.07524923  0.85819613    -0.58400
H450        H  0.22798007  0.06479590  0.91284232     0.16200
O451        O  0.13684233  0.45067206  0.94021880    -0.59800
H452        H  0.10544016  0.46144408  0.88497870     0.14700
H453        H  0.01749989  0.49154417  0.80227459     0.46500
H454        H  0.18942095  0.09224793  0.87116592     0.41900
H455        H  0.14191113  0.43341458  0.92680509     0.45300
H456        H  0.18590479  0.04609595  0.79062022     0.36800
C457        C  0.11777322  0.02842706  0.66539329    -0.27400
C458        C  0.12765116  0.50137649  0.66693722     0.02200
C459        C  0.10944224  0.47291166  0.69116376     0.30300
C460        C  0.08320391  0.47362627  0.71354703    -0.19200
C461        C  0.07170279  0.50104221  0.71259550    -0.28600
C462        C  0.08493140  0.02194530  0.68117541     0.44300
C463        C  0.15275648  0.50067307  0.63961760     0.05500
O464        O  0.11869584  0.44556786  0.69490083    -0.57100
H465        H  0.07305075  0.45298751  0.73295882     0.18400
O466        O  0.06055794  0.02320933  0.65769083    -0.63800
H467        H  0.12728442  0.04699244  0.64316164     0.16900
C468        C  0.14123438  0.47053143  0.61690803     0.29100
C469        C  0.16349880  0.47163724  0.58918698    -0.24700
C470        C  0.19731268  0.50299717  0.58255737    -0.24000
C471        C  0.21130423  0.03577794  0.60792400     0.40600
C472        C  0.18910414  0.03400794  0.63607996    -0.26500
O473        O  0.10739843  0.44035740  0.62048321    -0.58400
H474        H  0.15358581  0.44806100  0.57213524     0.16200
O475        O  0.24383306  0.06729461  0.60285173    -0.59800
H476        H  0.19799065  0.05757565  0.65299427     0.14700
H477        H  0.05815533  0.00731110  0.63748038     0.46500
H478        H  0.09007878  0.44666581  0.60793285     0.41900
H479        H  0.26238644  0.06362873  0.61645534     0.45300
H480        H  0.09620494  0.42257535  0.68859356     0.36800
C481        C  0.00030135  0.37626281  0.68538286    -0.27400
C482        C  0.99845558  0.38902806  0.65199137     0.02200
C483        C  0.50400319  0.42463467  0.64883277     0.29100
C484        C  0.50802268  0.44507315  0.67925649    -0.19200
C485        C  0.00656587  0.43284334  0.71412412    -0.28600
C486        C  0.00908625  0.39883400  0.71483433     0.44300
C487        C  0.99643512  0.36667170  0.62117541     0.05500
O488        O  0.50576492  0.44004918  0.61630277    -0.57100
H489        H  0.51266948  0.47138487  0.67553357     0.18400
O490        O  0.02365519  0.38812675  0.74238232    -0.63800
H491        H  0.99919121  0.34982708  0.68838967     0.16900
C492        C  0.02212872  0.35407132  0.61808212     0.29100
C493        C  0.01766319  0.32927214  0.59173271    -0.24700
C494        C  0.98795865  0.31651213  0.56793499    -0.24000
C495        C  0.46257442  0.32961211  0.57042231     0.40600
C496        C  0.46732199  0.35511484  0.59662911    -0.26500
O497        O  0.05061409  0.36453450  0.64199375    -0.58400
H498        H  0.03721330  0.31915787  0.59061465     0.16200
O499        O  0.43358602  0.31821230  0.54717056    -0.59800
H500        H  0.44746943  0.36472932  0.59865934     0.14700
H501        H  0.04668849  0.38951378  0.73385487     0.46500
H502        H  0.07304365  0.37130661  0.62826035     0.41900
H503        H  0.41194992  0.29996270  0.56033711     0.45300
H504        H  0.53149365  0.44964879  0.60879747     0.36800
C505        C  0.46436146  0.33827981  0.88857935    -0.27400
C506        C  0.99312413  0.35108025  0.86457758     0.02200
C507        C  0.01871889  0.33805028  0.86743281     0.30300
C508        C  0.01582586  0.31357137  0.89449079    -0.19200
C509        C  0.98696195  0.30074574  0.91853605    -0.28600
C510        C  0.46091364  0.31315996  0.91516965     0.44300
C511        C  0.99653237  0.37813403  0.83678155     0.05500
O512        O  0.04671713  0.34907176  0.84387948    -0.57100
H513        H  0.03607755  0.30434765  0.89648621     0.18400
O514        O  0.43255194  0.30177817  0.93835146    -0.63800
H515        H  0.44509628  0.34857316  0.88730498     0.16900
C516        C  0.47039338  0.36923678  0.80988330     0.29100
C517        C  0.47669693  0.39437608  0.78213766    -0.24700
C518        C  0.00726921  0.43023268  0.77957422    -0.24000
C519        C  0.03668673  0.43105605  0.80165658     0.40600
C520        C  0.02950664  0.41018833  0.83280806    -0.26500
O521        O  0.43959785  0.33549414  0.80926817    -0.58400
H522        H  0.46048591  0.38442175  0.75949422     0.16200
O523        O  0.07175840  0.44433087  0.79038251    -0.59800
H524        H  0.05223370  0.41512731  0.85036035     0.14700
H525        H  0.44179648  0.32028455  0.95733465     0.46500
H526        H  0.44682032  0.31941475  0.79655905     0.41900
H527        H  0.07599871  0.42307246  0.78718766     0.45300
H528        H  0.03608285  0.33214983  0.82370572     0.36800
C529        C  0.01481863  0.13243055  0.91195670    -0.27400
C530        C  0.48390280  0.11069572  0.89114789     0.02200
C531        C  0.45070641  0.11075635  0.89768294     0.30300
C532        C  0.44959018  0.13442958  0.92293923    -0.19200
C533        C  0.98144127  0.15857659  0.94171639    -0.28600
C534        C  0.01383654  0.15606859  0.93707758     0.44300
C535        C  0.48855369  0.09371483  0.85894643     0.05500
O536        O  0.41951646  0.08829539  0.87887686    -0.57100
H537        H  0.42414250  0.13504033  0.92655252     0.18400
O538        O  0.04537532  0.17781449  0.95570474    -0.63800
H539        H  0.04058341  0.13284242  0.90723230     0.16900
C540        C  0.98371420  0.10595795  0.82633820     0.29100
C541        C  0.99182378  0.09327961  0.79591171    -0.24700
C542        C  0.50108685  0.06382574  0.79367712    -0.24000
C543        C  0.51497535  0.06076215  0.82834936     0.40600
C544        C  0.50580489  0.07235753  0.85979283    -0.26500
O545        O  0.97443900  0.13339895  0.82364986    -0.58400
H546        H  0.99353269  0.11107029  0.77466337     0.16200
O547        O  0.53826993  0.04700415  0.83249859    -0.59800
H548        H  0.51434997  0.06626088  0.88498864     0.14700
H549        H  0.04384114  0.16372731  0.97746079     0.46500
H550        H  0.99806495  0.15659638  0.82469744     0.41900
H551        H  0.55782633  0.06241036  0.84958060     0.45300
H552        H  0.41370358  0.10479029  0.86425596     0.36800
C553        C  0.45583184  0.09610837  0.70012105    -0.27400
C554        C  0.98557122  0.12448782  0.68299931     0.02200
C555        C  0.02052935  0.13236255  0.69531747     0.30300
C556        C  0.02452775  0.10911806  0.71989563    -0.19200
C557        C  0.49546382  0.07338069  0.72926635    -0.28600
C558        C  0.46112492  0.07405310  0.72563117     0.44300
C559        C  0.98015007  0.14591086  0.65350059     0.05500
O560        O  0.05161890  0.16204227  0.68304647    -0.57100
H561        H  0.05224247  0.11912621  0.72746751     0.18400
O562        O  0.43544878  0.05940206  0.75166746    -0.63800
H563        H  0.42868848  0.09320875  0.69647461     0.16900
C564        C  0.45302854  0.12822339  0.62697127     0.29100
C565        C  0.45257220  0.14739975  0.59650466    -0.24700
C566        C  0.97890283  0.18422303  0.59165274    -0.24000
C567        C  0.00380031  0.20278108  0.61922384     0.40600
C568        C  0.00387747  0.18386795  0.64993931    -0.26500
O569        O  0.42697613  0.09209813  0.63006208    -0.58400
H570        H  0.43233854  0.13304031  0.57604416     0.16200
O571        O  0.02821767  0.23950661  0.61646612    -0.59800
H572        H  0.02296250  0.19911931  0.67084171     0.14700
H573        H  0.42932714  0.07851943  0.75916320     0.46500
H574        H  0.44078493  0.07834974  0.63200005     0.41900
H575        H  0.01436802  0.25210927  0.62355984     0.45300
H576        H  0.05852223  0.15312950  0.66203409     0.36800
C577        C  0.33851737  0.36033087  0.61681887    -0.27400
C578        C  0.35973573  0.34824505  0.63619679     0.02200
C579        C  0.35814914  0.31492831  0.62688619     0.30300
C580        C  0.33635124  0.29490601  0.59810398    -0.19200
C581        C  0.31573792  0.30751921  0.57809198    -0.28600
C582        C  0.31702024  0.34064462  0.58794851     0.44300
C583        C  0.38549957  0.37241255  0.66396278     0.05500
O584        O  0.37811282  0.30191928  0.64541321    -0.57100
H585        H  0.33576459  0.26946677  0.59137223     0.18400
O586        O  0.29798808  0.35457837  0.56923692    -0.63800
H587        H  0.33925739  0.38573295  0.62374159     0.16900
C588        C  0.41085101  0.40819312  0.65621933     0.29100
C589        C  0.43467387  0.43105074  0.68223214    -0.24700
C590        C  0.43517220  0.42326760  0.71869779    -0.24000
C591        C  0.40952010  0.38331373  0.72462936     0.40600
C592        C  0.38581298  0.36005507  0.69785159    -0.26500
O593        O  0.41422381  0.42114027  0.62225896    -0.58400
H594        H  0.45557829  0.45283934  0.67001352     0.16200
O595        O  0.40241655  0.36631202  0.75719115    -0.59800
H596        H  0.36619904  0.33192118  0.70432030     0.14700
H597        H  0.31490112  0.37000252  0.55049945     0.46500
H598        H  0.43183718  0.41499261  0.61104113     0.41900
H599        H  0.40189532  0.34236721  0.75461907     0.45300
H600        H  0.40141951  0.31104899  0.63255365     0.36800
C601        C  0.37038633  0.39898508  0.80863695    -0.27400
C602        C  0.38430138  0.39276907  0.83992640     0.02200
C603        C  0.42227305  0.40960612  0.84417020     0.30300
C604        C  0.44540498  0.42905689  0.81649512    -0.19200
C605        C  0.43350716  0.43419854  0.78254484    -0.28600
C606        C  0.39321084  0.41878868  0.78056380     0.44300
C607        C  0.35971608  0.36650463  0.86704318     0.05500
O608        O  0.43762701  0.40730682  0.87573987    -0.57100
H609        H  0.47323647  0.44049896  0.82377757     0.18400
O610        O  0.37344992  0.41576912  0.74998003    -0.63800
H611        H  0.34093594  0.38575538  0.80450629     0.16900
C612        C  0.32863914  0.36753678  0.87975440     0.29100
C613        C  0.30863502  0.34411020  0.90749602    -0.24700
C614        C  0.31838586  0.31882390  0.92250805    -0.24000
C615        C  0.34764089  0.31592200  0.90771941     0.40600
C616        C  0.36776303  0.33949471  0.88033332    -0.26500
O617        O  0.31681947  0.39011270  0.86428038    -0.58400
H618        H  0.28500305  0.34557420  0.91696350     0.16200
O619        O  0.35678726  0.29009054  0.91952285    -0.59800
H620        H  0.38947546  0.33620586  0.86877833     0.14700
H621        H  0.38806048  0.43605593  0.73387546     0.46500
H622        H  0.31017051  0.40148391  0.88357432     0.41900
H623        H  0.34390478  0.26909870  0.90329687     0.45300
H624        H  0.43936054  0.42786431  0.88992774     0.36800
C625        C  0.18629528  0.16596265  0.85495434    -0.27400
C626        C  0.14855546  0.14243026  0.85916171     0.02200
C627        C  0.13256251  0.14065105  0.89199489     0.30300
C628        C  0.15387567  0.16326469  0.91952745    -0.19200
C629        C  0.19140458  0.18703824  0.91509381    -0.28600
C630        C  0.20777558  0.18796545  0.88279859     0.44300
C631        C  0.12561996  0.12129844  0.82879226     0.05500
O632        O  0.09611500  0.11687536  0.89740222    -0.57100
H633        H  0.14121918  0.16183644  0.94457261     0.18400
O634        O  0.24434076  0.21163384  0.87771225    -0.63800
H635        H  0.19894820  0.16787510  0.82981100     0.16900
C636        C  0.09762214  0.12740224  0.81579257     0.29100
C637        C  0.07561254  0.10645312  0.78767753    -0.24700
C638        C  0.07686445  0.07534494  0.77319155    -0.24000
C639        C  0.11414043  0.08119106  0.77899422     0.40600
C640        C  0.13477451  0.09919435  0.80907480    -0.26500
O641        O  0.09253543  0.15504170  0.82913470    -0.58400
H642        H  0.05725319  0.11571169  0.77920843     0.16200
O643        O  0.13540193  0.07863270  0.75303303    -0.59800
H644        H  0.16063324  0.09961760  0.81423566     0.14700
H645        H  0.25689266  0.19698245  0.88273049     0.46500
H646        H  0.06992628  0.14266280  0.84326021     0.41900
H647        H  0.11938975  0.06233840  0.73463570     0.45300
H648        H  0.09517507  0.09377578  0.90574390     0.36800
C649        C  0.15587023  0.12167494  0.60198913    -0.27400
C650        C  0.12620266  0.12695990  0.61119187     0.02200
C651        C  0.12250906  0.15556287  0.59489375     0.30300
C652        C  0.14871452  0.17881950  0.57081507    -0.19200
C653        C  0.17911106  0.17432453  0.56239204    -0.28600
C654        C  0.18196142  0.14474326  0.57764820     0.44300
C655        C  0.10429362  0.10765842  0.64259086     0.05500
O656        O  0.09548607  0.16328849  0.60479989    -0.57100
H657        H  0.14566208  0.20125665  0.55957568     0.18400
O658        O  0.21119567  0.13933300  0.57068712    -0.63800
H659        H  0.15994697  0.10064305  0.61494406     0.16900
C660        C  0.06604799  0.09005025  0.64328871     0.29100
C661        C  0.04766280  0.07448333  0.67510353    -0.24700
C662        C  0.06545837  0.07281873  0.70777491    -0.24000
C663        C  0.10295483  0.10364678  0.70603151     0.40600
C664        C  0.12256642  0.11395490  0.67456278    -0.26500
O665        O  0.04603162  0.08739340  0.61332302    -0.58400
H666        H  0.01956902  0.06734320  0.67276925     0.16200
O667        O  0.11663945  0.13095682  0.73087525    -0.59800
H668        H  0.15161989  0.13361054  0.67544408     0.14700
H669        H  0.20164198  0.11879744  0.55374954     0.46500
H670        H  0.04058352  0.06369067  0.60268250     0.41900
H671        H  0.14338560  0.13985859  0.73382698     0.45300
H672        H  0.07810639  0.15618422  0.58452453     0.36800
O673        O  0.30141949  0.76782055  0.46311960    -0.74200
O674        O  0.23179818  0.69953287  0.02818581    -0.74300
O675        O  0.23862272  0.70391736  0.45658236    -0.74300
O676        O  0.29617664  0.76323563  0.03490790    -0.74400
O677        O  0.26591647  0.79500278  0.03402550    -0.74300
O678        O  0.20627402  0.73379690  0.45622934    -0.74300
O679        O  0.20165414  0.73142677  0.02788957    -0.74300
O680        O  0.26929120  0.79772551  0.46231704    -0.74300
Ni681      Ni  0.26807325  0.73147942  0.49569025     1.25400
Ni682      Ni  0.23468198  0.76660858  0.99544412     1.25400
C683        C  0.29585861  0.79371016  0.45100698     0.87900
C684        C  0.20463552  0.70357938  0.03806084     0.87900
C685        C  0.21312191  0.70941942  0.44360650     0.87900
C686        C  0.29066744  0.78842744  0.04761773     0.88100
O687        O  0.01779947  0.78055168  0.46125263    -0.74200
O688        O  0.01252968  0.72696517  0.04587998    -0.74300
O689        O  0.01524107  0.71518054  0.47483342    -0.74300
O690        O  0.01642528  0.79178809  0.03113818    -0.74400
O691        O  0.45531821  0.76494882  0.03135170    -0.74300
O692        O  0.45427744  0.68787637  0.47190028    -0.74300
O693        O  0.45136463  0.69887398  0.04368778    -0.74300
O694        O  0.45674289  0.75392281  0.46063118    -0.74300
Ni695      Ni  0.01660510  0.75438170  0.00350426     1.25400
Ni696      Ni  0.45119923  0.72551213  0.00220799     1.25400
C697        C  0.98775089  0.77710235  0.44787528     0.87900
C698        C  0.98131233  0.70458793  0.05897858     0.87900
C699        C  0.98466745  0.68893570  0.46402783     0.87900
C700        C  0.98681942  0.79060138  0.04143143     0.88100
O701        O  0.26934259  0.97618371  0.45992058    -0.74200
O702        O  0.21147032  0.97179347  0.03810228    -0.74300
O703        O  0.20710933  0.98022563  0.46800813    -0.74300
O704        O  0.27361159  0.96674370  0.03014006    -0.74400
O705        O  0.30698612  0.52787333  0.03059885    -0.74300
O706        O  0.23993192  0.53877568  0.46907043    -0.74300
O707        O  0.24472289  0.53255370  0.04210338    -0.74300
O708        O  0.30136659  0.53381533  0.46115594    -0.74300
Ni709      Ni  0.23819313  0.96892987  0.99879627     1.25400
Ni710      Ni  0.27267791  0.53517271  0.00137960     1.25400
C711        C  0.29454243  0.50324770  0.44761918     0.87900
C712        C  0.21877634  0.50205768  0.05351048     0.87900
C713        C  0.21307809  0.50992284  0.45584248     0.87900
C714        C  0.30191197  0.49575860  0.03872586     0.88100
C715        C  0.00681817  0.95805244  0.24792109    -0.02300
C716        C  0.50086438  0.54385490  0.25413539    -0.02300
C717        C  0.04516936  0.54699272  0.24349562    -0.02300
C718        C  0.04793721  0.00382811  0.24538877    -0.02300
C719        C  0.46004395  0.99980630  0.25007434    -0.02300
C720        C  0.46166823  0.95613718  0.24938723    -0.02300
C721        C  0.34580175  0.96230147  0.10987512    -0.27400
C722        C  0.38196996  0.49065958  0.10861401     0.02200
C723        C  0.39337144  0.51716644  0.08149640     0.30300
C724        C  0.36718025  0.51828130  0.05831476    -0.19200
C725        C  0.32989644  0.49173390  0.06029124    -0.28600
C726        C  0.31985686  0.96292838  0.08644282     0.44300
C727        C  0.40347291  0.49663454  0.14217856     0.05500
O728        O  0.42943590  0.54328628  0.07856796    -0.57100
H729        H  0.37594943  0.54034536  0.03916582     0.18400
O730        O  0.28382193  0.93648865  0.08943214    -0.63800
H731        H  0.33641056  0.94143403  0.13023939     0.16900
C732        C  0.38690081  0.49647299  0.17338721     0.29100
C733        C  0.40549754  0.50093465  0.20516253    -0.24700
C734        C  0.44016829  0.00144411  0.21214786    -0.24000
C735        C  0.45838502  0.00801661  0.17982496     0.40600
C736        C  0.44062904  0.00536856  0.14620614    -0.26500
O737        O  0.35395934  0.49674384  0.17302282    -0.58400
H738        H  0.39323993  0.51087823  0.22288654     0.16200
O739        O  0.49178696  0.01010860  0.18103358    -0.59800
H740        H  0.45490363  0.00741810  0.12206113     0.14700
H741        H  0.27328368  0.94611481  0.10690849     0.46500
H742        H  0.33607079  0.47304862  0.18374168     0.41900
H743        H  0.49900550  0.01062635  0.15621536     0.45300
H744        H  0.43972896  0.53354393  0.06097978     0.36800
C745        C  0.34314003  0.52298102  0.36096489    -0.27400
C746        C  0.36247618  0.00729436  0.36502463     0.02200
C747        C  0.35812964  0.98658708  0.39620335     0.30300
C748        C  0.33482579  0.98594633  0.42231395    -0.19200
C749        C  0.31727226  0.50317308  0.41889731    -0.28600
C750        C  0.32070654  0.52309106  0.38775624     0.44300
C751        C  0.38595147  0.00715058  0.33634501     0.05500
O752        O  0.37741048  0.96795250  0.40240322    -0.57100
H753        H  0.33181696  0.97013323  0.44612785     0.18400
O754        O  0.30229332  0.54272284  0.38331576    -0.63800
H755        H  0.34547384  0.53826677  0.33695453     0.16900
C756        C  0.37151865  0.99400924  0.30329394     0.29100
C757        C  0.39242784  0.98730734  0.27894853    -0.24700
C758        C  0.43102921  0.99807111  0.28255132    -0.24000
C759        C  0.43993375  0.50131224  0.31787288     0.40600
C760        C  0.42081762  0.50906758  0.34300544    -0.26500
O761        O  0.33553157  0.98384521  0.29547867    -0.58400
H762        H  0.37464644  0.97080658  0.25858914     0.16200
O763        O  0.46571425  0.49448392  0.33218158    -0.59800
H764        H  0.43216264  0.51578940  0.36944150     0.14700
H765        H  0.27695646  0.52450059  0.37620504     0.46500
H766        H  0.33646062  0.00382069  0.28025787     0.41900
H767        H  0.48009406  0.49706967  0.31180846     0.45300
H768        H  0.37313842  0.95211471  0.38178880     0.36800
C769        C  0.08962972  0.01117708  0.34382528    -0.27400
C770        C  0.12627337  0.51729936  0.33784812     0.02200
C771        C  0.13745701  0.51826934  0.30342430     0.30300
C772        C  0.11336805  0.51351921  0.27502909    -0.19200
C773        C  0.07608101  0.00776309  0.27902396    -0.28600
C774        C  0.06581698  0.00526765  0.31518501     0.44300
C775        C  0.14860199  0.51696773  0.36873397     0.05500
O776        O  0.17160965  0.52245981  0.29697125    -0.57100
H777        H  0.12698550  0.51739116  0.25041861     0.18400
O778        O  0.03042149  0.98929415  0.32419693    -0.63800
H779        H  0.07901899  0.00788739  0.37024388     0.16900
C780        C  0.18363038  0.54644148  0.37634032     0.29100
C781        C  0.20387558  0.54443943  0.40551318    -0.24700
C782        C  0.18805041  0.01448025  0.43011946    -0.24000
C783        C  0.15381625  0.98409720  0.42129183     0.40600
C784        C  0.13358968  0.98587937  0.39214689    -0.26500
O785        O  0.19834789  0.57720493  0.35542432    -0.58400
H786        H  0.23116248  0.56700269  0.41036053     0.16200
O787        O  0.13962885  0.95252720  0.44108613    -0.59800
H788        H  0.10754774  0.96216218  0.38570869     0.14700
H789        H  0.01858224  0.99070527  0.30252818     0.46500
H790        H  0.19309600  0.59500054  0.36760852     0.41900
H791        H  0.14553720  0.93561939  0.42809168     0.45300
H792        H  0.18605506  0.54771112  0.28750601     0.36800
C793        C  0.11600464  0.52640981  0.16362108    -0.27400
C794        C  0.12790332  0.00127882  0.16700831     0.02200
C795        C  0.11095074  0.97371171  0.19227773     0.30300
C796        C  0.08409316  0.97390552  0.21399237    -0.19200
C797        C  0.07208372  0.00085009  0.21247867    -0.28600
C798        C  0.08393710  0.52118653  0.18024214     0.44300
C799        C  0.15315895  0.00049046  0.14016116     0.05500
O800        O  0.12223197  0.94803500  0.19782341    -0.57100
H801        H  0.07445254  0.95377406  0.23387569     0.18400
O802        O  0.05955437  0.52362622  0.15762115    -0.63800
H803        H  0.12559114  0.54471948  0.14115972     0.16900
C804        C  0.14278538  0.96922055  0.11935137     0.29100
C805        C  0.16505044  0.97004839  0.09185840    -0.24700
C806        C  0.19743996  0.00225429  0.08339240    -0.24000
C807        C  0.20992828  0.53044583  0.10865675     0.40600
C808        C  0.18764022  0.52924096  0.13645103    -0.26500
O809        O  0.10990097  0.93818319  0.12436424    -0.58400
H810        H  0.15608172  0.94554866  0.07630388     0.16200
O811        O  0.24397247  0.56047032  0.10524584    -0.59800
H812        H  0.19752197  0.55215198  0.15435771     0.14700
H813        H  0.05610452  0.50770810  0.13711295     0.46500
H814        H  0.09145930  0.94263476  0.11149180     0.41900
H815        H  0.26065136  0.55473704  0.11972580     0.45300
H816        H  0.10055617  0.92404601  0.19240910     0.36800
C817        C  0.00239523  0.87688772  0.18556910    -0.27400
C818        C  0.00017965  0.88948844  0.15220864     0.02200
C819        C  0.50437511  0.92461028  0.14910419     0.29100
C820        C  0.50795167  0.94480850  0.17954759    -0.19200
C821        C  0.00734797  0.93289700  0.21429838    -0.28600
C822        C  0.01079078  0.89937734  0.21498799     0.44300
C823        C  0.99843977  0.86735665  0.12133901     0.05500
O824        O  0.50519309  0.93977558  0.11662940    -0.57100
H825        H  0.51173482  0.97079868  0.17608961     0.18400
O826        O  0.02547597  0.88891304  0.24262662    -0.63800
H827        H  0.00167339  0.85063782  0.18864165     0.16900
C828        C  0.02361063  0.85401279  0.11865577     0.29100
C829        C  0.01929813  0.82965424  0.09193030    -0.24700
C830        C  0.99023222  0.81798301  0.06750770    -0.24000
C831        C  0.46545293  0.83184328  0.06958720     0.40600
C832        C  0.47010436  0.85698401  0.09607282    -0.26500
O833        O  0.05130569  0.86324008  0.14329800    -0.58400
H834        H  0.03832994  0.81888437  0.09106924     0.16200
O835        O  0.43706949  0.82143826  0.04576361    -0.59800
H836        H  0.45072239  0.86723026  0.09774780     0.14700
H837        H  0.04857004  0.89038777  0.23416347     0.46500
H838        H  0.07387323  0.86891090  0.13026472     0.41900
H839        H  0.41547272  0.80145793  0.05757235     0.45300
H840        H  0.53031814  0.94818452  0.10785898     0.36800
C841        C  0.46446130  0.83664015  0.38727421    -0.27400
C842        C  0.99348548  0.85022079  0.36357002     0.02200
C843        C  0.02000877  0.83840652  0.36686983     0.30300
C844        C  0.01783530  0.81449357  0.39421681    -0.19200
C845        C  0.98879135  0.80103215  0.41808720    -0.28600
C846        C  0.46174299  0.81209883  0.41414828     0.44300
C847        C  0.99666920  0.87745178  0.33611025     0.05500
O848        O  0.04832193  0.85023128  0.34357653    -0.57100
H849        H  0.03881478  0.80626583  0.39660737     0.18400
O850        O  0.43317420  0.80014157  0.43715570    -0.63800
H851        H  0.44456384  0.84610334  0.38569681     0.16900
C852        C  0.47080115  0.86867076  0.30896006     0.29100
C853        C  0.47718400  0.89416648  0.28154310    -0.24700
C854        C  0.00774627  0.93011698  0.27945938    -0.24000
C855        C  0.03691343  0.93103028  0.30195809     0.40600
C856        C  0.02935649  0.90993089  0.33292224    -0.26500
O857        O  0.44026245  0.83475340  0.30779293    -0.58400
H858        H  0.46120381  0.88438903  0.25868308     0.16200
O859        O  0.07216461  0.94440623  0.29115597    -0.59800
H860        H  0.05185070  0.91502755  0.35087004     0.14700
H861        H  0.44263374  0.81754743  0.45706552     0.46500
H862        H  0.44705048  0.81979332  0.29274726     0.41900
H863        H  0.07657535  0.92322634  0.28816245     0.45300
H864        H  0.03835917  0.83315099  0.32345117     0.36800
C865        C  0.01831021  0.63516580  0.40997434    -0.27400
C866        C  0.48632203  0.61125073  0.39159254     0.02200
C867        C  0.45290024  0.60978995  0.40024306     0.30300
C868        C  0.45230796  0.63400552  0.42511549    -0.19200
C869        C  0.98491265  0.66014560  0.44152083    -0.28600
C870        C  0.01789213  0.65940177  0.43472976     0.44300
C871        C  0.48964235  0.59372278  0.35924349     0.05500
O872        O  0.42087458  0.58527142  0.38387156    -0.57100
H873        H  0.42647850  0.63327172  0.43037918     0.18400
O874        O  0.05041081  0.68353609  0.45062759    -0.63800
H875        H  0.04427280  0.63676051  0.40353107     0.16900
C876        C  0.98302136  0.60507145  0.32688447     0.29100
C877        C  0.99061774  0.59250921  0.29607702    -0.24700
C878        C  0.50087486  0.56379869  0.29332979    -0.24000
C879        C  0.51576986  0.56122503  0.32761855     0.40600
C880        C  0.50741663  0.57293221  0.35940348    -0.26500
O881        O  0.97245892  0.63160790  0.32471271    -0.58400
H882        H  0.99137341  0.61003931  0.27496846     0.16200
O883        O  0.53933921  0.54782271  0.33101508    -0.59800
H884        H  0.51705066  0.56744201  0.38428958     0.14700
H885        H  0.05316786  0.66998396  0.47110085     0.46500
H886        H  0.99557885  0.65528128  0.32602437     0.41900
H887        H  0.55927444  0.56340934  0.34767807     0.45300
H888        H  0.41416987  0.60005233  0.36769632     0.36800
C889        C  0.45490748  0.59621457  0.20039208    -0.27400
C890        C  0.98473175  0.62506379  0.18383344     0.02200
C891        C  0.01962942  0.63282860  0.19612578     0.30300
C892        C  0.02363926  0.60917760  0.22008246    -0.19200
C893        C  0.49459721  0.57335143  0.22916341    -0.28600
C894        C  0.46011657  0.57374031  0.22548127     0.44300
C895        C  0.97958037  0.64675328  0.15448672     0.05500
O896        O  0.05074080  0.66256070  0.18400830    -0.57100
H897        H  0.05145157  0.61883521  0.22695751     0.18400
O898        O  0.43437065  0.55873523  0.25141284    -0.63800
H899        H  0.42773474  0.59322281  0.19666287     0.16900
C900        C  0.45311319  0.62918044  0.12745814     0.29100
C901        C  0.45329916  0.64854086  0.09692450    -0.24700
C902        C  0.97976429  0.68538872  0.09242920    -0.24000
C903        C  0.00408527  0.70380961  0.12041057     0.40600
C904        C  0.00335927  0.68475281  0.15128819    -0.26500
O905        O  0.42726778  0.59292295  0.13003811    -0.58400
H906        H  0.43352252  0.63427948  0.07609645     0.16200
O907        O  0.02877905  0.74047596  0.11786663    -0.59800
H908        H  0.02203461  0.69984294  0.17251959     0.14700
H909        H  0.42795001  0.57760042  0.25905095     0.46500
H910        H  0.44127877  0.57933668  0.13134276     0.41900
H911        H  0.01461913  0.75325473  0.12322097     0.45300
H912        H  0.05665315  0.65414938  0.16208338     0.36800
C913        C  0.33534026  0.86102816  0.11916993    -0.27400
C914        C  0.35796373  0.84947729  0.13679983     0.02200
C915        C  0.35722850  0.81702755  0.12587072     0.30300
C916        C  0.33519805  0.79754851  0.09701957    -0.19200
C917        C  0.31317214  0.80960961  0.07862239    -0.28600
C918        C  0.31315283  0.84157143  0.09043389     0.44300
C919        C  0.38434735  0.87335483  0.16436295     0.05500
O920        O  0.37822381  0.80429448  0.14291898    -0.57100
H921        H  0.33553853  0.77289629  0.08898419     0.18400
O922        O  0.29182448  0.85431113  0.07406505    -0.63800
H923        H  0.33530632  0.88567107  0.12751761     0.16900
C924        C  0.41001444  0.90894660  0.15647709     0.29100
C925        C  0.43466758  0.93146923  0.18221116    -0.24700
C926        C  0.43564690  0.92362322  0.21865838    -0.24000
C927        C  0.40979467  0.88371057  0.22455340     0.40600
C928        C  0.38533563  0.86072187  0.19799602    -0.26500
O929        O  0.41293714  0.92194469  0.12257542    -0.58400
H930        H  0.45555002  0.95297377  0.16963119     0.16200
O931        O  0.40315330  0.86657500  0.25702135    -0.59800
H932        H  0.36567999  0.83260026  0.20446201     0.14700
H933        H  0.30846769  0.87379642  0.05770140     0.46500
H934        H  0.42936052  0.91464111  0.11065032     0.41900
H935        H  0.40235462  0.84254596  0.25405324     0.45300
H936        H  0.40206286  0.81603488  0.13072523     0.36800
C937        C  0.37157997  0.89939109  0.30936405    -0.27400
C938        C  0.38566662  0.89315975  0.34052971     0.02200
C939        C  0.42364369  0.90978612  0.34448292     0.30300
C940        C  0.44659727  0.92930703  0.31669922    -0.19200
C941        C  0.43449637  0.93443368  0.28279777    -0.28600
C942        C  0.39420541  0.91907124  0.28112491     0.44300
C943        C  0.36113550  0.86706663  0.36777513     0.05500
O944        O  0.43916858  0.90717295  0.37584058    -0.57100
H945        H  0.47442421  0.94067263  0.32388302     0.18400
O946        O  0.37420837  0.91612963  0.25073389    -0.63800
H947        H  0.34209667  0.88630090  0.30550700     0.16900
C948        C  0.33062617  0.86880374  0.38100666     0.29100
C949        C  0.31023051  0.84505242  0.40840865    -0.24700
C950        C  0.31910512  0.81884675  0.42267696    -0.24000
C951        C  0.34816789  0.81570287  0.40773330     0.40600
C952        C  0.36850866  0.83942939  0.38050070    -0.26500
O953        O  0.31964463  0.89233606  0.36623528    -0.58400
H954        H  0.28695356  0.84698019  0.41817490     0.16200
O955        O  0.35697997  0.78956261  0.41930702    -0.59800
H956        H  0.38977981  0.83573150  0.36854357     0.14700
H957        H  0.38871142  0.93643922  0.23460903     0.46500
H958        H  0.31306254  0.90337995  0.38587343     0.41900
H959        H  0.34425597  0.76884860  0.40275713     0.45300
H960        H  0.44119096  0.92771894  0.39024610     0.36800
C961        C  0.18605021  0.66842538  0.35271840    -0.27400
C962        C  0.14874089  0.64338228  0.35722292     0.02200
C963        C  0.13298497  0.63972487  0.39054604     0.30300
C964        C  0.15414653  0.66180351  0.41844058    -0.19200
C965        C  0.19126021  0.68706594  0.41377007    -0.28600
C966        C  0.20737980  0.69002703  0.38083990     0.44300
C967        C  0.12591928  0.62251993  0.32674093     0.05500
O968        O  0.09691902  0.61467572  0.39607712    -0.57100
H969        H  0.14169736  0.65889230  0.44389820     0.18400
O970        O  0.24349885  0.71512154  0.37551075    -0.63800
H971        H  0.19843363  0.67174343  0.32717448     0.16900
C972        C  0.09783826  0.62855906  0.31397227     0.29100
C973        C  0.07542341  0.60731155  0.28620305    -0.24700
C974        C  0.07668546  0.57617997  0.27164569    -0.24000
C975        C  0.11407107  0.58218644  0.27708015     0.40600
C976        C  0.13503093  0.60047128  0.30692541    -0.26500
O977        O  0.09281731  0.65618795  0.32743728    -0.58400
H978        H  0.05644541  0.61610379  0.27863773     0.16200
O979        O  0.13501136  0.57927525  0.25100403    -0.59800
H980        H  0.16095666  0.60097586  0.31195517     0.14700
H981        H  0.25734817  0.70186910  0.38118154     0.46500
H982        H  0.07092682  0.64384276  0.34251126     0.41900
H983        H  0.11877499  0.56247517  0.23303509     0.45300
H984        H  0.09707579  0.59176066  0.40321669     0.36800
C985        C  0.14987630  0.62011367  0.09664264    -0.27400
C986        C  0.12247371  0.62737155  0.10901757     0.02200
C987        C  0.12086201  0.65837723  0.09604883     0.30300
C988        C  0.14730711  0.68231465  0.07251900    -0.19200
C989        C  0.17583906  0.67604844  0.06129249    -0.28600
C990        C  0.17611110  0.64380550  0.07271408     0.44300
C991        C  0.10132336  0.60728818  0.14047690     0.05500
O992        O  0.09565390  0.66742091  0.10859956    -0.57100
H993        H  0.14601603  0.70659828  0.06401007     0.18400
O994        O  0.20267486  0.63581581  0.06191542    -0.63800
H995        H  0.15192785  0.59674739  0.10666770     0.16900
C996        C  0.06317793  0.59019574  0.14212224     0.29100
C997        C  0.04553660  0.57445669  0.17422158    -0.24700
C998        C  0.06403257  0.57242583  0.20633777    -0.24000
C999        C  0.10160268  0.60285389  0.20381178     0.40600
C1000       C  0.12042612  0.61264832  0.17188203    -0.26500
O1001       O  0.04264597  0.58873882  0.11290379    -0.58400
H1002       H  0.01743784  0.56742244  0.17253741     0.16200
O1003       O  0.11565259  0.63073797  0.22807763    -0.59800
H1004       H  0.14961196  0.63184889  0.17215746     0.14700
H1005       H  0.19162121  0.61925885  0.04154154     0.46500
H1006       H  0.03223771  0.56331142  0.10413696     0.41900
H1007       H  0.14249151  0.63993085  0.23048906     0.45300
H1008       H  0.07661261  0.66030563  0.08981982     0.36800
O1009       O  0.30101245  0.76931998  0.96308320    -0.74200
O1010       O  0.23163310  0.69722837  0.52765629    -0.74300
O1011       O  0.23818400  0.70572059  0.95739404    -0.74300
O1012       O  0.29571923  0.76108837  0.53485160    -0.74400
O1013       O  0.26506473  0.79248130  0.53376508    -0.74300
O1014       O  0.20586512  0.73563650  0.95730775    -0.74300
O1015       O  0.20130184  0.72895202  0.52688686    -0.74300
O1016       O  0.26910191  0.79944655  0.96224974    -0.74300
Ni1017     Ni  0.26803753  0.73346822  0.99607024     1.25400
Ni1018     Ni  0.23448688  0.76438981  0.49483076     1.25400
C1019       C  0.29525971  0.79493741  0.95057963     0.87900
C1020       C  0.20458972  0.70145095  0.53763460     0.87900
C1021       C  0.21253201  0.71111851  0.94471981     0.87900
C1022       C  0.28987737  0.78610812  0.54748221     0.88100
O1023       O  0.01601574  0.78027626  0.96136436    -0.74200
O1024       O  0.01410253  0.72590818  0.54498025    -0.74300
O1025       O  0.01302144  0.71497122  0.97600020    -0.74300
O1026       O  0.01759445  0.79068431  0.53130997    -0.74400
O1027       O  0.45645321  0.76332114  0.53099335    -0.74300
O1028       O  0.45205710  0.68813652  0.97341316    -0.74300
O1029       O  0.45292750  0.69739647  0.54230358    -0.74300
O1030       O  0.45500591  0.75420620  0.96109889    -0.74300
Ni1031     Ni  0.01830900  0.75396901  0.50299838     1.25400
Ni1032     Ni  0.45287844  0.72458527  0.50124741     1.25400
C1033       C  0.98600454  0.77685524  0.94794915     0.87900
C1034       C  0.98282065  0.70323878  0.55777844     0.87900
C1035       C  0.98225496  0.68878278  0.96551928     0.87900
C1036       C  0.98773838  0.78901457  0.54149077     0.88100
O1037       O  0.26743214  0.97044708  0.95993833    -0.74200
O1038       O  0.21392262  0.97614551  0.53901715    -0.74300
O1039       O  0.20547798  0.97530960  0.96691087    -0.74300
O1040       O  0.27625775  0.97172650  0.52981907    -0.74400
O1041       O  0.30857737  0.52831846  0.53115995    -0.74300
O1042       O  0.23662845  0.53790686  0.97081987    -0.74300
O1043       O  0.24605849  0.53364148  0.54071571    -0.74300
O1044       O  0.29807379  0.53356817  0.96077133    -0.74300
Ni1045     Ni  0.24038633  0.97396816  0.49921138     1.25400
Ni1046     Ni  0.27505148  0.53583057  0.50084524     1.25400
C1047       C  0.29105744  0.50313137  0.94678525     0.87900
C1048       C  0.21958275  0.50336277  0.55196479     0.87900
C1049       C  0.20969294  0.50902387  0.95772452     0.87900
C1050       C  0.30315097  0.49612649  0.53951444     0.88100
C1051       C  0.00647909  0.95691608  0.74689186    -0.02300
C1052       C  0.50022414  0.54430829  0.75549268    -0.02300
C1053       C  0.04472032  0.54766838  0.74486281    -0.02300
C1054       C  0.04763997  0.00271485  0.74517805    -0.02300
C1055       C  0.46001483  0.99894503  0.74882072    -0.02300
C1056       C  0.46144273  0.95515135  0.74806464    -0.02300
C1057       C  0.34871532  0.96497544  0.60737038    -0.27400
C1058       C  0.38286897  0.48950798  0.60887368     0.02200
C1059       C  0.39458108  0.51550526  0.58126468     0.30300
C1060       C  0.36849534  0.51716027  0.55827843    -0.19200
C1061       C  0.33091133  0.49174879  0.56114763    -0.28600
C1062       C  0.32282534  0.96647404  0.58449966     0.44300
C1063       C  0.40410926  0.49597780  0.64273928     0.05500
O1064       O  0.43090589  0.54056472  0.57755549    -0.57100
H1065       H  0.37758392  0.53877899  0.53862212     0.18400
O1066       O  0.28679106  0.93997012  0.58720271    -0.63800
H1067       H  0.33926590  0.94350683  0.62716614     0.16900
C1068       C  0.38707433  0.49598773  0.67362858     0.29100
C1069       C  0.40532394  0.50097605  0.70565763    -0.24700
C1070       C  0.44070423  0.00107440  0.71083259    -0.24000
C1071       C  0.45946566  0.00774221  0.67884949     0.40600
C1072       C  0.44257630  0.00617043  0.64497834    -0.26500
O1073       O  0.35400699  0.49600880  0.67264644    -0.58400
H1074       H  0.39279734  0.51108562  0.72290369     0.16200
O1075       O  0.49257380  0.00915196  0.68060590    -0.59800
H1076       H  0.45718827  0.00831366  0.62103537     0.14700
H1077       H  0.27629649  0.94908022  0.60522386     0.46500
H1078       H  0.33620902  0.47260311  0.68390892     0.41900
H1079       H  0.50024746  0.01003441  0.65590012     0.45300
H1080       H  0.44062486  0.52903692  0.56129597     0.36800
C1081       C  0.34013178  0.52512563  0.86009845    -0.27400
C1082       C  0.36188612  0.00260258  0.86548252     0.02200
C1083       C  0.35895188  0.98324319  0.89733550     0.30300
C1084       C  0.33512659  0.98191614  0.92328418    -0.19200
C1085       C  0.31324803  0.50328388  0.91745678    -0.28600
C1086       C  0.31738893  0.52447755  0.88704318     0.44300
C1087       C  0.38527932  0.00275635  0.83648979     0.05500
O1088       O  0.37994108  0.96654057  0.90429795    -0.57100
H1089       H  0.33321687  0.96722159  0.94762220     0.18400
O1090       O  0.29940497  0.54461294  0.88350637    -0.63800
H1091       H  0.34317315  0.54145910  0.83668555     0.16900
C1092       C  0.37101239  0.99107390  0.80300576     0.29100
C1093       C  0.39234046  0.98633800  0.77762486    -0.24700
C1094       C  0.43087422  0.99689143  0.78115075    -0.24000
C1095       C  0.43771184  0.50284596  0.81941549     0.40600
C1096       C  0.41821342  0.51184635  0.84312610    -0.26500
O1097       O  0.33478890  0.98026134  0.79562269    -0.58400
H1098       H  0.37469569  0.97057795  0.75683717     0.16200
O1099       O  0.46166913  0.49469319  0.83597144    -0.59800
H1100       H  0.42846828  0.51854471  0.86993994     0.14700
H1101       H  0.27430202  0.52703128  0.87517052     0.46500
H1102       H  0.33510703  0.99964509  0.77991893     0.41900
H1103       H  0.47701637  0.49639817  0.81688400     0.45300
H1104       H  0.37509996  0.94911252  0.88495369     0.36800
C1105       C  0.08975550  0.00910175  0.84359463    -0.27400
C1106       C  0.12388099  0.51715050  0.83928899     0.02200
C1107       C  0.13608528  0.51868328  0.80515172     0.30300
C1108       C  0.11271794  0.51411124  0.77617190    -0.19200
C1109       C  0.07564395  0.00626279  0.77888908    -0.28600
C1110       C  0.06568224  0.00359295  0.81533145     0.44300
C1111       C  0.14553459  0.51657645  0.87059715     0.05500
O1112       O  0.17051160  0.52321430  0.79957560    -0.57100
H1113       H  0.12670702  0.51801756  0.75174966     0.18400
O1114       O  0.03044944  0.98748221  0.82506141    -0.63800
H1115       H  0.07949189  0.00577983  0.87016560     0.16900
C1116       C  0.17931035  0.54690755  0.88002528     0.29100
C1117       C  0.19922401  0.54469075  0.90934926    -0.24700
C1118       C  0.18746532  0.00995499  0.92848483    -0.24000
C1119       C  0.15256659  0.98032833  0.92033713     0.40600
C1120       C  0.13253272  0.98255076  0.89129333    -0.26500
O1121       O  0.19318353  0.57873077  0.86070487    -0.58400
H1122       H  0.22562831  0.56803145  0.91552742     0.16200
O1123       O  0.13745647  0.94925938  0.94086556    -0.59800
H1124       H  0.10589752  0.95943377  0.88533939     0.14700
H1125       H  0.01809027  0.98676980  0.80312498     0.46500
H1126       H  0.18443939  0.59405614  0.87255989     0.41900
H1127       H  0.14273507  0.93153423  0.92857617     0.45300
H1128       H  0.18554812  0.54920744  0.79233085     0.36800
C1129       C  0.11688512  0.52811298  0.66462203    -0.27400
C1130       C  0.12983813  0.00277523  0.66879807     0.02200
C1131       C  0.11161840  0.97383729  0.69247785     0.30300
C1132       C  0.08371386  0.97289993  0.71338707    -0.19200
C1133       C  0.07190700  0.00000359  0.71234678    -0.28600
C1134       C  0.08477766  0.52285270  0.68130210     0.44300
C1135       C  0.15526558  0.00252906  0.64198105     0.05500
O1136       O  0.12260140  0.94784937  0.69729858    -0.57100
H1137       H  0.07351705  0.95211396  0.73259906     0.18400
O1138       O  0.06058632  0.52555123  0.65865322    -0.63800
H1139       H  0.12674750  0.54703646  0.64273113     0.16900
C1140       C  0.14359819  0.97280290  0.61882862     0.29100
C1141       C  0.16594906  0.97421977  0.59120712    -0.24700
C1142       C  0.19976726  0.00567250  0.58497708    -0.24000
C1143       C  0.20880668  0.53337851  0.60515083     0.40600
C1144       C  0.18658511  0.53206162  0.63316797    -0.26500
O1145       O  0.10939956  0.94295565  0.62173514    -0.58400
H1146       H  0.15595459  0.95095070  0.57374966     0.16200
O1147       O  0.24149931  0.56470687  0.60003315    -0.59800
H1148       H  0.19562580  0.55588649  0.64974642     0.14700
H1149       H  0.05717023  0.50978491  0.63803232     0.46500
H1150       H  0.09292615  0.94910891  0.60742386     0.41900
H1151       H  0.26024694  0.56003105  0.61197853     0.45300
H1152       H  0.10135504  0.92431885  0.68992632     0.36800
C1153       C  0.00078102  0.87508851  0.68481725    -0.27400
C1154       C  0.99879534  0.88762547  0.65142300     0.02200
C1155       C  0.50406317  0.92310812  0.64797839     0.29100
C1156       C  0.50804905  0.94371488  0.67825752    -0.19200
C1157       C  0.00710522  0.93184394  0.71312557    -0.28600
C1158       C  0.01014099  0.89808143  0.71389906     0.44300
C1159       C  0.99735290  0.86537181  0.62088411     0.05500
O1160       O  0.50566796  0.93823553  0.61532714    -0.57100
H1161       H  0.51242860  0.96985625  0.67445383     0.18400
O1162       O  0.02541892  0.88789159  0.74123912    -0.63800
H1163       H  0.99978209  0.84871281  0.68800066     0.16900
C1164       C  0.02359551  0.85343485  0.61807660     0.29100
C1165       C  0.01995520  0.82907429  0.59162692    -0.24700
C1166       C  0.99046498  0.81609381  0.56756935    -0.24000
C1167       C  0.46452281  0.82849301  0.56986328     0.40600
C1168       C  0.46842540  0.85351091  0.59616617    -0.26500
O1169       O  0.05188179  0.86418482  0.64224576    -0.58400
H1170       H  0.03992690  0.81948201  0.59063460     0.16200
O1171       O  0.43581321  0.81692174  0.54627454    -0.59800
H1172       H  0.44821805  0.86269572  0.59800763     0.14700
H1173       H  0.04820013  0.88906400  0.73223237     0.46500
H1174       H  0.07473400  0.87343297  0.62855428     0.41900
H1175       H  0.41466331  0.79674073  0.55841504     0.45300
H1176       H  0.53125208  0.94738456  0.60755590     0.36800
C1177       C  0.46266858  0.83458111  0.88492607    -0.27400
C1178       C  0.99272554  0.84901451  0.86243290     0.02200
C1179       C  0.01986710  0.83818693  0.86719100     0.30300
C1180       C  0.01716872  0.81434506  0.89476588    -0.19200
C1181       C  0.98721750  0.80023591  0.91761243    -0.28600
C1182       C  0.45962108  0.81034913  0.91222061     0.44300
C1183       C  0.99612523  0.87601803  0.83469658     0.05500
O1184       O  0.04931895  0.85093469  0.84517915    -0.57100
H1185       H  0.03858732  0.80683946  0.89824719     0.18400
O1186       O  0.43013656  0.79771817  0.93417235    -0.63800
H1187       H  0.44213467  0.84312989  0.88206330     0.16900
C1188       C  0.47055396  0.86696638  0.80722668     0.29100
C1189       C  0.47672935  0.89262755  0.78005485    -0.24700
C1190       C  0.00717850  0.92867256  0.77820364    -0.24000
C1191       C  0.03628693  0.92962299  0.80075107     0.40600
C1192       C  0.02859205  0.90876341  0.83184480    -0.26500
O1193       O  0.44068383  0.83262138  0.80541637    -0.58400
H1194       H  0.46085052  0.88285911  0.75713778     0.16200
O1195       O  0.07144646  0.94253788  0.78982112    -0.59800
H1196       H  0.05094519  0.91417946  0.85008060     0.14700
H1197       H  0.43683102  0.81731047  0.95180711     0.46500
H1198       H  0.44839791  0.81835735  0.79041647     0.41900
H1199       H  0.07565083  0.92118007  0.78723589     0.45300
H1200       H  0.04041485  0.83462906  0.82443085     0.36800
C1201       C  0.01518444  0.63373855  0.91265314    -0.27400
C1202       C  0.48394837  0.61185708  0.89227330     0.02200
C1203       C  0.45082552  0.61181796  0.89935931     0.30300
C1204       C  0.45002121  0.63551115  0.92472194    -0.19200
C1205       C  0.98211246  0.65976431  0.94310031    -0.28600
C1206       C  0.01450517  0.65738820  0.93793767     0.44300
C1207       C  0.48801666  0.59460115  0.86002403     0.05500
O1208       O  0.41937108  0.58925574  0.88097690    -0.57100
H1209       H  0.42459646  0.63606071  0.92871286     0.18400
O1210       O  0.04628709  0.67926004  0.95617998    -0.63800
H1211       H  0.04089233  0.63420054  0.90749927     0.16900
C1212       C  0.98272146  0.60655962  0.82745995     0.29100
C1213       C  0.98971136  0.59309555  0.79690430    -0.24700
C1214       C  0.49970893  0.56410119  0.79460084    -0.24000
C1215       C  0.51380302  0.56120786  0.82925576     0.40600
C1216       C  0.50485318  0.57291830  0.86073710    -0.26500
O1217       O  0.97401271  0.63440699  0.82486487    -0.58400
H1218       H  0.99034733  0.61032803  0.77558859     0.16200
O1219       O  0.53768105  0.54820963  0.83340752    -0.59800
H1220       H  0.51359501  0.56693332  0.88588417     0.14700
H1221       H  0.04469356  0.66565756  0.97829523     0.46500
H1222       H  0.99779856  0.65737423  0.82666126     0.41900
H1223       H  0.55723890  0.56396254  0.85032538     0.45300
H1224       H  0.41407963  0.60562097  0.86559245     0.36800
C1225       C  0.45461288  0.59579878  0.69996604    -0.27400
C1226       C  0.98469923  0.62492377  0.68402784     0.02200
C1227       C  0.01935589  0.63339951  0.69752316     0.30300
C1228       C  0.02315175  0.60973155  0.72163753    -0.19200
C1229       C  0.49413717  0.57371946  0.73024422    -0.28600
C1230       C  0.45962664  0.57388184  0.72581893     0.44300
C1231       C  0.98002204  0.64603070  0.65394726     0.05500
O1232       O  0.05041521  0.66388105  0.68645357    -0.57100
H1233       H  0.05082531  0.61961858  0.72912894     0.18400
O1234       O  0.43360796  0.55923720  0.75153455    -0.63800
H1235       H  0.42736297  0.59228651  0.69518442     0.16900
C1236       C  0.45533187  0.62766422  0.62589676     0.29100
C1237       C  0.45587272  0.64672062  0.59503689    -0.24700
C1238       C  0.98107239  0.68406615  0.59125594    -0.24000
C1239       C  0.00364856  0.70310002  0.62007225     0.40600
C1240       C  0.00258690  0.68426168  0.65121102    -0.26500
O1241       O  0.43107808  0.59088984  0.62782456    -0.58400
H1242       H  0.43742329  0.63194584  0.57348568     0.16200
O1243       O  0.02682386  0.74017759  0.61813698    -0.59800
H1244       H  0.01996444  0.69969706  0.67306305     0.14700
H1245       H  0.42724985  0.57829269  0.75867171     0.46500
H1246       H  0.44647362  0.57876132  0.62971338     0.41900
H1247       H  0.01107579  0.75157889  0.62201077     0.45300
H1248       H  0.06001402  0.65517275  0.66734805     0.36800
C1249       C  0.33577195  0.86061249  0.61700490    -0.27400
C1250       C  0.35756371  0.84869964  0.63565678     0.02200
C1251       C  0.35555946  0.81521771  0.62629520     0.30300
C1252       C  0.33323513  0.79510925  0.59787747    -0.19200
C1253       C  0.31220472  0.80757692  0.57837375    -0.28600
C1254       C  0.31332122  0.84052556  0.58867718     0.44300
C1255       C  0.38404170  0.87279510  0.66302432     0.05500
O1256       O  0.37565642  0.80208690  0.64440304    -0.57100
H1257       H  0.33261384  0.76969211  0.59098852     0.18400
O1258       O  0.29306070  0.85375608  0.57103548    -0.63800
H1259       H  0.33662551  0.88602119  0.62416486     0.16900
C1260       C  0.41004696  0.90826789  0.65498653     0.29100
C1261       C  0.43477250  0.93079897  0.68071231    -0.24700
C1262       C  0.43558924  0.92284592  0.71718268    -0.24000
C1263       C  0.40962432  0.88296331  0.72306837     0.40600
C1264       C  0.38488910  0.86020526  0.69666980    -0.26500
O1265       O  0.41325030  0.92108253  0.62099199    -0.58400
H1266       H  0.45579753  0.95232636  0.66817131     0.16200
O1267       O  0.40300998  0.86568703  0.75547305    -0.59800
H1268       H  0.36496930  0.83220910  0.70326191     0.14700
H1269       H  0.31010837  0.87182408  0.55384926     0.46500
H1270       H  0.42965670  0.91357298  0.60933830     0.41900
H1271       H  0.40204923  0.84159702  0.75236471     0.45300
H1272       H  0.40002969  0.81383354  0.63319085     0.36800
C1273       C  0.37060896  0.89823210  0.80706335    -0.27400
C1274       C  0.38428739  0.89153211  0.83825040     0.02200
C1275       C  0.42220514  0.90765101  0.84247670     0.30300
C1276       C  0.44553491  0.92734643  0.81501234    -0.19200
C1277       C  0.43388266  0.93315765  0.78114942    -0.28600
C1278       C  0.39361025  0.91807773  0.77910406     0.44300
C1279       C  0.35941776  0.86572514  0.86544581     0.05500
O1280       O  0.43731669  0.90448505  0.87387770    -0.57100
H1281       H  0.47328566  0.93848941  0.82253833     0.18400
O1282       O  0.37401372  0.91571569  0.74856595    -0.63800
H1283       H  0.34116584  0.88551112  0.80301882     0.16900
C1284       C  0.32958166  0.86849549  0.87898064     0.29100
C1285       C  0.30935647  0.84544865  0.90689940    -0.24700
C1286       C  0.31785191  0.81905297  0.92137860    -0.24000
C1287       C  0.34594689  0.81464687  0.90585966     0.40600
C1288       C  0.36612066  0.83767289  0.87819537    -0.26500
O1289       O  0.31929924  0.89256553  0.86418611    -0.58400
H1290       H  0.28666146  0.84818100  0.91703184     0.16200
O1291       O  0.35397834  0.78792132  0.91727513    -0.59800
H1292       H  0.38688360  0.83325062  0.86608104     0.14700
H1293       H  0.38883045  0.93619974  0.73272797     0.46500
H1294       H  0.31291448  0.90382616  0.88377362     0.41900
H1295       H  0.33880810  0.76642560  0.90222605     0.45300
H1296       H  0.43891107  0.92461458  0.88865755     0.36800
C1297       C  0.18532350  0.66787222  0.85490884    -0.27400
C1298       C  0.14767520  0.64404911  0.85922425     0.02200
C1299       C  0.13175384  0.64185942  0.89219774     0.30300
C1300       C  0.15300156  0.66451138  0.91972123    -0.19200
C1301       C  0.19044088  0.68853009  0.91518321    -0.28600
C1302       C  0.20680503  0.68966966  0.88282600     0.44300
C1303       C  0.12477286  0.62288649  0.82888710     0.05500
O1304       O  0.09548579  0.61754409  0.89778972    -0.57100
H1305       H  0.14041168  0.66281682  0.94486780     0.18400
O1306       O  0.24343828  0.71311975  0.87785028    -0.63800
H1307       H  0.19793572  0.67001498  0.82969420     0.16900
C1308       C  0.09634411  0.62847035  0.81634013     0.29100
C1309       C  0.07423365  0.60735623  0.78837962    -0.24700
C1310       C  0.07586043  0.57654900  0.77350834    -0.24000
C1311       C  0.11335401  0.58287293  0.77897684     0.40600
C1312       C  0.13423173  0.60123535  0.80882737    -0.26500
O1313       O  0.09086349  0.65574772  0.83002107    -0.58400
H1314       H  0.05539545  0.61624659  0.78068475     0.16200
O1315       O  0.13445294  0.58017515  0.75293445    -0.59800
H1316       H  0.16035669  0.60212604  0.81363588     0.14700
H1317       H  0.25588246  0.69857790  0.88392843     0.46500
H1318       H  0.06852016  0.64305702  0.84446646     0.41900
H1319       H  0.11834424  0.56344002  0.73485876     0.45300
H1320       H  0.09513725  0.59481478  0.90647072     0.36800
C1321       C  0.14868194  0.61844997  0.59662618    -0.27400
C1322       C  0.12386457  0.62813553  0.61137702     0.02200
C1323       C  0.12482326  0.66094252  0.60050212     0.30300
C1324       C  0.15082136  0.68392750  0.57621770    -0.19200
C1325       C  0.17646005  0.67495232  0.56206446    -0.28600
C1326       C  0.17457232  0.64130527  0.57191592     0.44300
C1327       C  0.10235613  0.60812878  0.64268201     0.05500
O1328       O  0.10246971  0.67232855  0.61563410    -0.57100
H1329       H  0.15149598  0.70956458  0.56935443     0.18400
O1330       O  0.19849171  0.63091813  0.55853249    -0.63800
H1331       H  0.14883979  0.59366159  0.60495292     0.16900
C1332       C  0.06417363  0.59162277  0.64379971     0.29100
C1333       C  0.04589255  0.57575884  0.67565247    -0.24700
C1334       C  0.06393029  0.57356303  0.70803372    -0.24000
C1335       C  0.10140521  0.60422284  0.70608086     0.40600
C1336       C  0.12090400  0.61402692  0.67448601    -0.26500
O1337       O  0.04433098  0.59117859  0.61437379    -0.58400
H1338       H  0.01771427  0.56849313  0.67352069     0.16200
O1339       O  0.11475869  0.63200114  0.73046279    -0.59800
H1340       H  0.15002670  0.63344210  0.67514461     0.14700
H1341       H  0.18620643  0.61689974  0.53698650     0.46500
H1342       H  0.03163812  0.56534316  0.60644798     0.41900
H1343       H  0.14157794  0.64136639  0.73338724     0.45300
H1344       H  0.08245609  0.66670778  0.59819618     0.36800
O1345       O  0.80337045  0.26703868  0.46288301    -0.74200
O1346       O  0.73235826  0.19799733  0.02815063    -0.74300
O1347       O  0.74033926  0.20346638  0.45711860    -0.74300
O1348       O  0.79610913  0.26182794  0.03559196    -0.74400
O1349       O  0.76539439  0.29316545  0.03443159    -0.74300
O1350       O  0.70792054  0.23326475  0.45760604    -0.74300
O1351       O  0.70186268  0.22955510  0.02777991    -0.74300
O1352       O  0.77120437  0.29690605  0.46241347    -0.74300
Ni1353     Ni  0.77041201  0.23102696  0.49586806     1.25400
Ni1354     Ni  0.73474784  0.26492057  0.99561551     1.25400
C1355       C  0.79751311  0.29270273  0.45068302     0.87900
C1356       C  0.70519462  0.20198212  0.03813552     0.87900
C1357       C  0.71461989  0.20892531  0.44467999     0.87900
C1358       C  0.79004531  0.28664889  0.04831876     0.88100
O1359       O  0.51462981  0.28015737  0.46160574    -0.74200
O1360       O  0.51132607  0.22475782  0.04506188    -0.74300
O1361       O  0.51193557  0.21484763  0.47526392    -0.74300
O1362       O  0.51523071  0.28966317  0.03117002    -0.74400
O1363       O  0.95412466  0.26269100  0.03121237    -0.74300
O1364       O  0.95095091  0.18761223  0.47249936    -0.74300
O1365       O  0.95016421  0.19651737  0.04258951    -0.74300
O1366       O  0.95359164  0.25385463  0.46095405    -0.74300
Ni1367     Ni  0.51558501  0.25265943  0.00302423     1.25400
Ni1368     Ni  0.95018791  0.22378424  0.00144390     1.25400
C1369       C  0.48470016  0.27683454  0.44814717     0.87900
C1370       C  0.48007908  0.20233367  0.05805499     0.87900
C1371       C  0.48130095  0.18852339  0.46469285     0.87900
C1372       C  0.48555389  0.28834710  0.04144681     0.88100
O1373       O  0.76897140  0.47273726  0.45923624    -0.74200
O1374       O  0.71076543  0.47192947  0.03807660    -0.74300
O1375       O  0.70716009  0.47799262  0.46563811    -0.74300
O1376       O  0.77282613  0.46709482  0.02859088    -0.74400
O1377       O  0.80777405  0.02757532  0.03099729    -0.74300
O1378       O  0.73906710  0.04106233  0.47100340    -0.74300
O1379       O  0.74534526  0.03247535  0.04087085    -0.74300
O1380       O  0.80101023  0.03730953  0.46127292    -0.74300
Ni1381     Ni  0.73714312  0.47002881  0.99811337     1.25400
Ni1382     Ni  0.77370413  0.03414208  0.00080615     1.25400
C1383       C  0.79429017  0.00675427  0.44774935     0.87900
C1384       C  0.71928141  0.00229067  0.05271328     0.87900
C1385       C  0.71220986  0.01186881  0.45820791     0.87900
C1386       C  0.80259723  0.99564583  0.04001094     0.88100
C1387       C  0.50635338  0.45717222  0.24687092    -0.02300
C1388       C  0.00150005  0.04474436  0.25531288    -0.02300
C1389       C  0.54579329  0.04777119  0.24453428    -0.02300
C1390       C  0.54736428  0.50305203  0.24482018    -0.02300
C1391       C  0.95953913  0.49886803  0.24835694    -0.02300
C1392       C  0.96125633  0.45520936  0.24825870    -0.02300
C1393       C  0.84563132  0.46168638  0.10752298    -0.27400
C1394       C  0.88236215  0.99081945  0.11042550     0.02200
C1395       C  0.89390832  0.01691401  0.08290341     0.30300
C1396       C  0.86778883  0.01798531  0.05961533    -0.19200
C1397       C  0.83036857  0.99202044  0.06217658    -0.28600
C1398       C  0.81976453  0.46193516  0.08366768     0.44300
C1399       C  0.90390675  0.99703011  0.14396400     0.05500
O1400       O  0.93005510  0.04269854  0.07961771    -0.57100
H1401       H  0.87671296  0.03957890  0.03994173     0.18400
O1402       O  0.78416707  0.43416162  0.08519081    -0.63800
H1403       H  0.83637074  0.44047446  0.12753405     0.16900
C1404       C  0.88734124  0.99705956  0.17512684     0.29100
C1405       C  0.90597008  0.00175387  0.20686756    -0.24700
C1406       C  0.93974635  0.50067768  0.21037186    -0.24000
C1407       C  0.95791082  0.50725947  0.17795866     0.40600
C1408       C  0.94016700  0.50485539  0.14438289    -0.26500
O1409       O  0.85442496  0.99739049  0.17472052    -0.58400
H1410       H  0.89385189  0.01201804  0.22443261     0.16200
O1411       O  0.99122638  0.50913271  0.17899196    -0.59800
H1412       H  0.95442919  0.50704861  0.12018761     0.14700
H1413       H  0.77190150  0.44262645  0.10192988     0.46500
H1414       H  0.83662173  0.97397776  0.18596776     0.41900
H1415       H  0.99852361  0.50974218  0.15417014     0.45300
H1416       H  0.94075457  0.03127787  0.06440471     0.36800
C1417       C  0.84368999  0.02752934  0.36120449    -0.27400
C1418       C  0.86310836  0.50398514  0.36531486     0.02200
C1419       C  0.86046248  0.48497557  0.39731768     0.30300
C1420       C  0.83705683  0.48419579  0.42342557    -0.19200
C1421       C  0.81667358  0.00660729  0.41866469    -0.28600
C1422       C  0.82132831  0.02775678  0.38810514     0.44300
C1423       C  0.88591449  0.50351732  0.33618837     0.05500
O1424       O  0.88137280  0.46816853  0.40428929    -0.57100
H1425       H  0.83515140  0.46958851  0.44782045     0.18400
O1426       O  0.80413352  0.04861372  0.38431258    -0.63800
H1427       H  0.84702778  0.04376123  0.33764929     0.16900
C1428       C  0.87096462  0.49092242  0.30310794     0.29100
C1429       C  0.89196948  0.48597331  0.27757095    -0.24700
C1430       C  0.93061562  0.49684438  0.28072679    -0.24000
C1431       C  0.93973587  0.00333297  0.31993916     0.40600
C1432       C  0.92048045  0.01212838  0.34411194    -0.26500
O1433       O  0.83451086  0.47955501  0.29635348    -0.58400
H1434       H  0.87407880  0.47001098  0.25700043     0.16200
O1435       O  0.96413647  0.99542255  0.33583841    -0.59800
H1436       H  0.93102396  0.01868264  0.37085073     0.14700
H1437       H  0.77882949  0.03138705  0.37619832     0.46500
H1438       H  0.83422481  0.49873145  0.28077203     0.41900
H1439       H  0.97894596  0.99732615  0.31641918     0.45300
H1440       H  0.87716994  0.45129783  0.38458227     0.36800
C1441       C  0.59103230  0.51134315  0.34304115    -0.27400
C1442       C  0.62506923  0.01737187  0.33943855     0.02200
C1443       C  0.63712928  0.01874364  0.30525931     0.30300
C1444       C  0.61368025  0.01411312  0.27628573    -0.19200
C1445       C  0.57581505  0.50715823  0.27844334    -0.28600
C1446       C  0.56635090  0.50470248  0.31504584     0.44300
C1447       C  0.64698967  0.01737655  0.37082710     0.05500
O1448       O  0.67158391  0.02338904  0.29962094    -0.57100
H1449       H  0.62769565  0.01804370  0.25189304     0.18400
O1450       O  0.53125475  0.48811095  0.32536935    -0.63800
H1451       H  0.58111752  0.50839869  0.36971927     0.16900
C1452       C  0.68049292  0.04814198  0.38011662     0.29100
C1453       C  0.70071717  0.04657144  0.40950163    -0.24700
C1454       C  0.68965265  0.51323510  0.42753302    -0.24000
C1455       C  0.65416486  0.48419429  0.42024208     0.40600
C1456       C  0.63398814  0.48636255  0.39130498    -0.26500
O1457       O  0.69380854  0.07978965  0.36058402    -0.58400
H1458       H  0.72691764  0.07025686  0.41552075     0.16200
O1459       O  0.63862356  0.45371780  0.44154548    -0.59800
H1460       H  0.60689761  0.46360889  0.38609223     0.14700
H1461       H  0.51844235  0.48669606  0.30354295     0.46500
H1462       H  0.68660850  0.09577016  0.37350393     0.41900
H1463       H  0.64142354  0.43462069  0.42884453     0.45300
H1464       H  0.68663616  0.04949961  0.29276658     0.36800
C1465       C  0.61564629  0.02674471  0.16311694    -0.27400
C1466       C  0.62748044  0.50032578  0.16734736     0.02200
C1467       C  0.60942017  0.47205962  0.19161518     0.30300
C1468       C  0.58294057  0.47268408  0.21340473    -0.19200
C1469       C  0.57137063  0.49995872  0.21194596    -0.28600
C1470       C  0.58401093  0.02167573  0.18046166     0.44300
C1471       C  0.65251706  0.49917504  0.14076373     0.05500
O1472       O  0.61898971  0.44499354  0.19589128    -0.57100
H1473       H  0.57319072  0.45260076  0.23325219     0.18400
O1474       O  0.55929251  0.02408197  0.15834912    -0.63800
H1475       H  0.62425290  0.04442701  0.14019386     0.16900
C1476       C  0.63969536  0.47017541  0.11663011     0.29100
C1477       C  0.66205929  0.47100709  0.08928438    -0.24700
C1478       C  0.69705598  0.50127936  0.08443568    -0.24000
C1479       C  0.70767081  0.03379506  0.10400896     0.40600
C1480       C  0.68562172  0.03268526  0.13200148    -0.26500
O1481       O  0.60448247  0.44184108  0.11830623    -0.58400
H1482       H  0.65121996  0.44846528  0.07088922     0.16200
O1483       O  0.73869570  0.06610736  0.09672926    -0.59800
H1484       H  0.69356272  0.05732957  0.14705002     0.14700
H1485       H  0.55562854  0.00837518  0.13761191     0.46500
H1486       H  0.58925519  0.45068157  0.10549516     0.41900
H1487       H  0.75840358  0.06546755  0.11129353     0.45300
H1488       H  0.59759230  0.42231295  0.18710312     0.36800
C1489       C  0.50201957  0.37618182  0.18417123    -0.27400
C1490       C  0.49882780  0.38840631  0.15094473     0.02200
C1491       C  0.00276680  0.42342654  0.14783468     0.29100
C1492       C  0.00711566  0.44394570  0.17826830    -0.19200
C1493       C  0.50682119  0.43211124  0.21302330    -0.28600
C1494       C  0.51063782  0.39876548  0.21353235     0.44300
C1495       C  0.49695910  0.36618217  0.12014749     0.05500
O1496       O  0.00254924  0.43815859  0.11537470    -0.57100
H1497       H  0.01121155  0.47004383  0.17476158     0.18400
O1498       O  0.52575711  0.38853738  0.24101244    -0.63800
H1499       H  0.50187309  0.35018101  0.18707706     0.16900
C1500       C  0.52339772  0.35459447  0.11655831     0.29100
C1501       C  0.51905509  0.32970923  0.09037644    -0.24700
C1502       C  0.48876043  0.31590427  0.06725758    -0.24000
C1503       C  0.96266073  0.32804786  0.07021266     0.40600
C1504       C  0.96721310  0.35356404  0.09627854    -0.26500
O1505       O  0.55244020  0.36599500  0.13994058    -0.58400
H1506       H  0.53914401  0.32030290  0.08893431     0.16200
O1507       O  0.93306828  0.31561137  0.04760904    -0.59800
H1508       H  0.94680071  0.36240911  0.09873247     0.14700
H1509       H  0.54863055  0.38974363  0.23223831     0.46500
H1510       H  0.57468820  0.37305330  0.12581167     0.41900
H1511       H  0.91232951  0.29613567  0.06083231     0.45300
H1512       H  0.02770947  0.44749579  0.10632798     0.36800
C1513       C  0.96295383  0.33643729  0.38610433    -0.27400
C1514       C  0.49291214  0.35044589  0.36347859     0.02200
C1515       C  0.51966818  0.33911002  0.36814690     0.30300
C1516       C  0.51637838  0.31472092  0.39538640    -0.19200
C1517       C  0.48634280  0.30075323  0.41814161    -0.28600
C1518       C  0.95941284  0.31179812  0.41317964     0.44300
C1519       C  0.49638827  0.37716035  0.33539399     0.05500
O1520       O  0.54933164  0.35189486  0.34639986    -0.57100
H1521       H  0.53743486  0.30669330  0.39870395     0.18400
O1522       O  0.93018547  0.29973127  0.43538372    -0.63800
H1523       H  0.94287419  0.34557551  0.38350639     0.16900
C1524       C  0.97102902  0.36759303  0.30767362     0.29100
C1525       C  0.97717894  0.39287849  0.28011925    -0.24700
C1526       C  0.50740945  0.42905346  0.27816513    -0.24000
C1527       C  0.53653313  0.43044916  0.30102637     0.40600
C1528       C  0.52883241  0.40989506  0.33233226    -0.26500
O1529       O  0.94134834  0.33311256  0.30608299    -0.58400
H1530       H  0.96151529  0.38267335  0.25708587     0.16200
O1531       O  0.57184564  0.44366271  0.29045389    -0.59800
H1532       H  0.55113984  0.41559811  0.35073474     0.14700
H1533       H  0.93757546  0.31923584  0.45324296     0.46500
H1534       H  0.94927377  0.31881611  0.29138065     0.41900
H1535       H  0.57602846  0.42233612  0.28749610     0.45300
H1536       H  0.54030151  0.33642618  0.32509530     0.36800
C1537       C  0.51550640  0.13385850  0.41299190    -0.27400
C1538       C  0.98495235  0.11250117  0.39162218     0.02200
C1539       C  0.95162581  0.11237780  0.39783300     0.30300
C1540       C  0.95006945  0.13576455  0.42309295    -0.19200
C1541       C  0.48159267  0.15963052  0.44239748    -0.28600
C1542       C  0.51398878  0.15697859  0.43839582     0.44300
C1543       C  0.98990893  0.09576096  0.35943046     0.05500
O1544       O  0.92071031  0.08999546  0.37870086    -0.57100
H1545       H  0.92457100  0.13637510  0.42631484     0.18400
O1546       O  0.54494241  0.17795272  0.45811023    -0.63800
H1547       H  0.54133032  0.13424852  0.40865515     0.16900
C1548       C  0.48505478  0.10794029  0.32680517     0.29100
C1549       C  0.49244390  0.09464373  0.29640720    -0.24700
C1550       C  0.00156892  0.06503965  0.29427498    -0.24000
C1551       C  0.01562947  0.06215256  0.32890660     0.40600
C1552       C  0.00678617  0.07408601  0.36032647    -0.26500
O1553       O  0.47617970  0.13566117  0.32401379    -0.58400
H1554       H  0.49362452  0.11208388  0.27504428     0.16200
O1555       O  0.03926755  0.04885085  0.33305124    -0.59800
H1556       H  0.01534985  0.06802423  0.38552768     0.14700
H1557       H  0.54322223  0.16258576  0.47892956     0.46500
H1558       H  0.49986115  0.15870158  0.32603850     0.41900
H1559       H  0.05890814  0.06455373  0.34991735     0.45300
H1560       H  0.91582062  0.10647727  0.36309097     0.36800
C1561       C  0.95504361  0.09613089  0.20094072    -0.27400
C1562       C  0.48462678  0.12470211  0.18386820     0.02200
C1563       C  0.51970290  0.13292866  0.19610966     0.30300
C1564       C  0.52402988  0.10978518  0.22051638    -0.19200
C1565       C  0.99514869  0.07396794  0.22996591    -0.28600
C1566       C  0.96068078  0.07437860  0.22651360     0.44300
C1567       C  0.47901667  0.14581903  0.15426795     0.05500
O1568       O  0.55062754  0.16267251  0.18368449    -0.57100
H1569       H  0.55182793  0.11984447  0.22775845     0.18400
O1570       O  0.93533465  0.05998425  0.25283293    -0.63800
H1571       H  0.92778283  0.09292468  0.19726073     0.16900
C1572       C  0.95249779  0.12772385  0.12739764     0.29100
C1573       C  0.95239856  0.14661141  0.09659263    -0.24700
C1574       C  0.47857019  0.18351132  0.09175505    -0.24000
C1575       C  0.50271264  0.20246520  0.11969953     0.40600
C1576       C  0.50234831  0.18384445  0.15076381    -0.26500
O1577       O  0.92683918  0.09145001  0.13044088    -0.58400
H1578       H  0.93265255  0.13197202  0.07585832     0.16200
O1579       O  0.52688603  0.23925144  0.11692721    -0.59800
H1580       H  0.52096859  0.19928330  0.17190254     0.14700
H1581       H  0.92932516  0.07918033  0.26031961     0.46500
H1582       H  0.94100957  0.07806530  0.13251352     0.41900
H1583       H  0.51258584  0.25166079  0.12312240     0.45300
H1584       H  0.55506183  0.15495942  0.16060776     0.36800
C1585       C  0.83430816  0.35966752  0.11922060    -0.27400
C1586       C  0.85637106  0.34787848  0.13750702     0.02200
C1587       C  0.85477319  0.31470663  0.12774073     0.30300
C1588       C  0.83280469  0.29496732  0.09901065    -0.19200
C1589       C  0.81182496  0.30758286  0.07961322    -0.28600
C1590       C  0.81231061  0.34004068  0.09053581     0.44300
C1591       C  0.88308100  0.37213109  0.16453497     0.05500
O1592       O  0.87499354  0.30161636  0.14569512    -0.57100
H1593       H  0.83251462  0.26980242  0.09173774     0.18400
O1594       O  0.79193368  0.35328157  0.07313374    -0.63800
H1595       H  0.83476583  0.38474050  0.12685886     0.16900
C1596       C  0.90855445  0.40771009  0.15619370     0.29100
C1597       C  0.93368968  0.43038428  0.18149619    -0.24700
C1598       C  0.93526031  0.42260054  0.21784005    -0.24000
C1599       C  0.90970012  0.38272923  0.22411006     0.40600
C1600       C  0.88472135  0.35967605  0.19804069    -0.26500
O1601       O  0.91082185  0.42052182  0.12228373    -0.58400
H1602       H  0.95448188  0.45182391  0.16871735     0.16200
O1603       O  0.90365673  0.36578697  0.25665038    -0.59800
H1604       H  0.86514987  0.33162378  0.20483291     0.14700
H1605       H  0.80897211  0.37164133  0.05614071     0.46500
H1606       H  0.92547266  0.41157496  0.10952205     0.41900
H1607       H  0.90249334  0.34159942  0.25361439     0.45300
H1608       H  0.89864757  0.31190623  0.13324554     0.36800
C1609       C  0.87114655  0.39810460  0.30825357    -0.27400
C1610       C  0.88529658  0.39140452  0.33912298     0.02200
C1611       C  0.92322015  0.40794108  0.34307147     0.30300
C1612       C  0.94617802  0.42775571  0.31544766    -0.19200
C1613       C  0.93409987  0.43337231  0.28169900    -0.28600
C1614       C  0.89376177  0.41799271  0.28007083     0.44300
C1615       C  0.86093807  0.36513801  0.36624619     0.05500
O1616       O  0.93870061  0.40502402  0.37433346    -0.57100
H1617       H  0.97396396  0.43905744  0.32277516     0.18400
O1618       O  0.87375577  0.41521234  0.24971735    -0.63800
H1619       H  0.84164022  0.38523060  0.30460635     0.16900
C1620       C  0.83187945  0.36819798  0.38119373     0.29100
C1621       C  0.81199224  0.34460295  0.40886345    -0.24700
C1622       C  0.82009069  0.31740389  0.42181741    -0.24000
C1623       C  0.84759414  0.31293053  0.40510655     0.40600
C1624       C  0.86740438  0.33647686  0.37754156    -0.26500
O1625       O  0.82193812  0.39310128  0.36796513    -0.58400
H1626       H  0.78984182  0.34758770  0.42001783     0.16200
O1627       O  0.85527569  0.28559934  0.41517305    -0.59800
H1628       H  0.88757493  0.33196057  0.36429414     0.14700
H1629       H  0.88833020  0.43547567  0.23356485     0.46500
H1630       H  0.81646270  0.40412436  0.38838486     0.41900
H1631       H  0.83971372  0.26460696  0.39972159     0.45300
H1632       H  0.93800465  0.42350261  0.38996310     0.36800
C1633       C  0.68735381  0.16684608  0.35438717    -0.27400
C1634       C  0.64954384  0.14356628  0.35839969     0.02200
C1635       C  0.63351265  0.14139371  0.39130863     0.30300
C1636       C  0.65488648  0.16338744  0.41913082    -0.19200
C1637       C  0.69251215  0.18675608  0.41494135    -0.28600
C1638       C  0.70890381  0.18808610  0.38255684     0.44300
C1639       C  0.62664734  0.12281277  0.32788733     0.05500
O1640       O  0.59699573  0.11776719  0.39653583    -0.57100
H1641       H  0.64220772  0.16171803  0.44421978     0.18400
O1642       O  0.74560903  0.21135962  0.37776344    -0.63800
H1643       H  0.70004785  0.16903665  0.32920972     0.16900
C1644       C  0.59840149  0.12874623  0.31537140     0.29100
C1645       C  0.57605067  0.10765284  0.28751644    -0.24700
C1646       C  0.57726517  0.07660155  0.27286087    -0.24000
C1647       C  0.61474775  0.08275657  0.27796553     0.40600
C1648       C  0.63585383  0.10103833  0.30772104    -0.26500
O1649       O  0.59338766  0.15635274  0.32891970    -0.58400
H1650       H  0.55754739  0.11683051  0.27938990     0.16200
O1651       O  0.63553550  0.07980501  0.25173135    -0.59800
H1652       H  0.66188904  0.10169774  0.31240452     0.14700
H1653       H  0.75775757  0.19632238  0.38274195     0.46500
H1654       H  0.57117429  0.14397321  0.34358292     0.41900
H1655       H  0.61922624  0.06297502  0.23380384     0.45300
H1656       H  0.59602563  0.09522037  0.40659609     0.36800
C1657       C  0.65214588  0.12052472  0.09926685    -0.27400
C1658       C  0.62425673  0.12754180  0.11071312     0.02200
C1659       C  0.62210825  0.15787169  0.09670529     0.30300
C1660       C  0.64809588  0.18108687  0.07253835    -0.19200
C1661       C  0.67686489  0.17491564  0.06190510    -0.28600
C1662       C  0.67810149  0.14364321  0.07486964     0.44300
C1663       C  0.60287304  0.10800033  0.14215051     0.05500
O1664       O  0.59699051  0.16717864  0.10901569    -0.57100
H1665       H  0.64630978  0.20485292  0.06313705     0.18400
O1666       O  0.70549697  0.13631148  0.06537228    -0.63800
H1667       H  0.65490604  0.09797275  0.11043783     0.16900
C1668       C  0.56470388  0.09097123  0.14332884     0.29100
C1669       C  0.54668126  0.07538433  0.17526574    -0.24700
C1670       C  0.56489539  0.07348283  0.20761465    -0.24000
C1671       C  0.60237428  0.10416579  0.20546433     0.40600
C1672       C  0.62162512  0.11397386  0.17381034    -0.26500
O1673       O  0.54448636  0.08910451  0.11373805    -0.58400
H1674       H  0.51855653  0.06821662  0.17318446     0.16200
O1675       O  0.61602897  0.13199895  0.22978252    -0.59800
H1676       H  0.65074370  0.13343100  0.17434018     0.14700
H1677       H  0.69502003  0.11879584  0.04562278     0.46500
H1678       H  0.53679583  0.06459091  0.10369414     0.41900
H1679       H  0.64281972  0.14112760  0.23265441     0.45300
H1680       H  0.57837215  0.16073428  0.08991225     0.36800
O1681       O  0.80183981  0.26875606  0.96382174    -0.74200
O1682       O  0.73430792  0.19706750  0.52813813    -0.74300
O1683       O  0.73934799  0.20476392  0.95729992    -0.74300
O1684       O  0.79871726  0.26069348  0.53476196    -0.74400
O1685       O  0.76838474  0.29240830  0.53391191    -0.74300
O1686       O  0.70638789  0.23401079  0.95727818    -0.74300
O1687       O  0.70425953  0.22905345  0.52821129    -0.74300
O1688       O  0.76921267  0.29815404  0.96282800    -0.74300
Ni1689     Ni  0.76868326  0.23235164  0.99636109     1.25400
Ni1690     Ni  0.73698352  0.26409821  0.49560803     1.25400
C1691       C  0.79578330  0.29421551  0.95140131     0.87900
C1692       C  0.70741153  0.20134092  0.53846834     0.87900
C1693       C  0.71345718  0.20979679  0.94461578     0.87900
C1694       C  0.79322784  0.28594096  0.54737434     0.88100
O1695       O  0.51528797  0.27923865  0.96128118    -0.74200
O1696       O  0.51117634  0.22591796  0.54518622    -0.74300
O1697       O  0.51210361  0.21358720  0.97499277    -0.74300
O1698       O  0.51452911  0.29063777  0.53150407    -0.74400
O1699       O  0.95341047  0.26350342  0.53145165    -0.74300
O1700       O  0.95116249  0.18682849  0.97200965    -0.74300
O1701       O  0.95000169  0.19749276  0.54299668    -0.74300
O1702       O  0.95427714  0.25335358  0.96082765    -0.74300
Ni1703     Ni  0.51514302  0.25377463  0.50329181     1.25400
Ni1704     Ni  0.94972229  0.22455750  0.50176891     1.25400
C1705       C  0.48540280  0.27631938  0.94807009     0.87900
C1706       C  0.48004141  0.20332187  0.55822973     0.87900
C1707       C  0.48140181  0.18750734  0.96420733     0.87900
C1708       C  0.48479465  0.28918177  0.54180833     0.88100
O1709       O  0.76599352  0.47247546  0.95867076    -0.74200
O1710       O  0.71179799  0.47308569  0.53689202    -0.74300
O1711       O  0.70418927  0.47712949  0.96714984    -0.74300
O1712       O  0.77397717  0.46758785  0.52932814    -0.74400
O1713       O  0.81029088  0.03252446  0.53123347    -0.74300
O1714       O  0.73795348  0.03617686  0.96946677    -0.74300
O1715       O  0.74752874  0.03681824  0.54246322    -0.74300
O1716       O  0.79944366  0.03158373  0.96088388    -0.74300
Ni1717     Ni  0.73915664  0.47072853  0.49777165     1.25400
Ni1718     Ni  0.77553699  0.03915028  0.50177974     1.25400
C1719       C  0.79260490  0.00085964  0.94769633     0.87900
C1720       C  0.72165846  0.00638278  0.55410408     0.87900
C1721       C  0.71106593  0.00703644  0.95676474     0.87900
C1722       C  0.80536327  0.00050502  0.53965421     0.88100
C1723       C  0.50611434  0.45799090  0.74787914    -0.02300
C1724       C  0.00142970  0.04385995  0.75462493    -0.02300
C1725       C  0.54577543  0.04680950  0.74442010    -0.02300
C1726       C  0.54716427  0.50382297  0.74537862    -0.02300
C1727       C  0.95896751  0.49941257  0.74981932    -0.02300
C1728       C  0.96087277  0.45590803  0.74933170    -0.02300
C1729       C  0.84621897  0.46114306  0.60817723    -0.27400
C1730       C  0.88525943  0.99339306  0.60837146     0.02200
C1731       C  0.89699225  0.02009798  0.58138561     0.30300
C1732       C  0.87089658  0.02208758  0.55862827    -0.19200
C1733       C  0.83335320  0.99635405  0.56114673    -0.28600
C1734       C  0.82029044  0.46231730  0.58503059     0.44300
C1735       C  0.90623083  0.99893229  0.64217940     0.05500
O1736       O  0.93330399  0.04545652  0.57811811    -0.57100
H1737       H  0.87992694  0.04412097  0.53942309     0.18400
O1738       O  0.78417416  0.43609453  0.58798483    -0.63800
H1739       H  0.83670589  0.44009350  0.62838247     0.16900
C1740       C  0.88921438  0.99878594  0.67312072     0.29100
C1741       C  0.90679655  0.00189291  0.70523334    -0.24700
C1742       C  0.93962250  0.50104301  0.71155679    -0.24000
C1743       C  0.95836387  0.50777855  0.67951873     0.40600
C1744       C  0.94097448  0.50479616  0.64558853    -0.26500
O1745       O  0.85683966  0.00020517  0.67222348    -0.58400
H1746       H  0.89429612  0.01154178  0.72297906     0.16200
O1747       O  0.99188260  0.51010568  0.68134086    -0.59800
H1748       H  0.95566664  0.50694931  0.62170376     0.14700
H1749       H  0.77428882  0.44486352  0.60688967     0.46500
H1750       H  0.83828540  0.97679173  0.68288469     0.41900
H1751       H  0.99965599  0.51102901  0.65667031     0.45300
H1752       H  0.94348032  0.03413007  0.56214628     0.36800
C1753       C  0.84139633  0.02108296  0.86105010    -0.27400
C1754       C  0.85957167  0.50552093  0.86368898     0.02200
C1755       C  0.85543615  0.48448849  0.89458986     0.30300
C1756       C  0.83195916  0.48315833  0.92082696    -0.19200
C1757       C  0.81502933  0.00056911  0.91874709    -0.28600
C1758       C  0.81832400  0.02043696  0.88759342     0.44300
C1759       C  0.88352716  0.50626069  0.83507941     0.05500
O1760       O  0.87508002  0.46616030  0.90034671    -0.57100
H1761       H  0.82926585  0.46726316  0.94451309     0.18400
O1762       O  0.79919916  0.03934375  0.88291558    -0.63800
H1763       H  0.84375481  0.03651851  0.83714319     0.16900
C1764       C  0.86942123  0.49288637  0.80200887     0.29100
C1765       C  0.89087707  0.48672763  0.77782437    -0.24700
C1766       C  0.92948754  0.49755915  0.78192398    -0.24000
C1767       C  0.93966030  0.00090129  0.81848910     0.40600
C1768       C  0.92005407  0.00806862  0.84362666    -0.26500
O1769       O  0.83324155  0.48179707  0.79411182    -0.58400
H1770       H  0.87338639  0.47023690  0.75730893     0.16200
O1771       O  0.96517373  0.99383411  0.83304778    -0.59800
H1772       H  0.93099711  0.01427670  0.87023856     0.14700
H1773       H  0.77386588  0.02058422  0.87639875     0.46500
H1774       H  0.83362944  0.50118320  0.77837036     0.41900
H1775       H  0.97968338  0.99655629  0.81284549     0.45300
H1776       H  0.87055073  0.45028870  0.87970117     0.36800
C1777       C  0.58841318  0.51095654  0.84365841    -0.27400
C1778       C  0.62484622  0.01457192  0.83867597     0.02200
C1779       C  0.63661728  0.01621868  0.80439888     0.30300
C1780       C  0.61313997  0.01240480  0.77578569    -0.19200
C1781       C  0.57513009  0.50770583  0.77893343    -0.28600
C1782       C  0.56466509  0.50508822  0.81497891     0.44300
C1783       C  0.64676757  0.01384092  0.86961583     0.05500
O1784       O  0.67077264  0.02025584  0.79829067    -0.57100
H1785       H  0.62717158  0.01680650  0.75135793     0.18400
O1786       O  0.52916550  0.48899923  0.82371755    -0.63800
H1787       H  0.57772343  0.50753649  0.87005335     0.16900
C1788       C  0.68107976  0.04383314  0.87816427     0.29100
C1789       C  0.70117954  0.04174030  0.90731929    -0.24700
C1790       C  0.68596333  0.51235730  0.92970186    -0.24000
C1791       C  0.65154289  0.48241723  0.92066766     0.40600
C1792       C  0.63164214  0.48484733  0.89159824    -0.26500
O1793       O  0.69521791  0.07525030  0.85819598    -0.58400
H1794       H  0.72798128  0.06479807  0.91284339     0.16200
O1795       O  0.63684038  0.45067866  0.94022378    -0.59800
H1796       H  0.60543905  0.46145028  0.88498280     0.14700
H1797       H  0.51750071  0.49154345  0.80227492     0.46500
H1798       H  0.68942660  0.09225117  0.87116704     0.41900
H1799       H  0.64190692  0.43341888  0.92681137     0.45300
H1800       H  0.68590611  0.04609729  0.79062340     0.36800
C1801       C  0.61777362  0.02842595  0.66539347    -0.27400
C1802       C  0.62765334  0.50138055  0.66693673     0.02200
C1803       C  0.60944499  0.47291554  0.69116327     0.30300
C1804       C  0.58320613  0.47362920  0.71354653    -0.19200
C1805       C  0.57170382  0.50104423  0.71259493    -0.28600
C1806       C  0.58493159  0.02194400  0.68117536     0.44300
C1807       C  0.65275940  0.50067803  0.63961728     0.05500
O1808       O  0.61869963  0.44557249  0.69490034    -0.57100
H1809       H  0.57305385  0.45299075  0.73295866     0.18400
O1810       O  0.56055784  0.02320693  0.65769040    -0.63800
H1811       H  0.62728453  0.04699085  0.64316136     0.16900
C1812       C  0.64123818  0.47053642  0.61690783     0.29100
C1813       C  0.66350335  0.47164240  0.58918748    -0.24700
C1814       C  0.69731721  0.50300245  0.58255823    -0.24000
C1815       C  0.71130363  0.03577777  0.60792279     0.40600
C1816       C  0.68910372  0.03400847  0.63607861    -0.26500
O1817       O  0.60740237  0.44036206  0.62048247    -0.58400
H1818       H  0.65359094  0.44806603  0.57213599     0.16200
O1819       O  0.74383068  0.06729569  0.60284797    -0.59800
H1820       H  0.69798890  0.05757774  0.65299052     0.14700
H1821       H  0.55815589  0.00730869  0.63748018     0.46500
H1822       H  0.59008257  0.44667059  0.60793261     0.41900
H1823       H  0.76238654  0.06363121  0.61644864     0.45300
H1824       H  0.59620969  0.42257992  0.68859114     0.36800
C1825       C  0.50030589  0.37626478  0.68538266    -0.27400
C1826       C  0.49845868  0.38902905  0.65199114     0.02200
C1827       C  0.00400165  0.42463419  0.64883337     0.29100
C1828       C  0.00802157  0.44507242  0.67925730    -0.19200
C1829       C  0.50656816  0.43284475  0.71412336    -0.28600
C1830       C  0.50909032  0.39883633  0.71483381     0.44300
C1831       C  0.49643804  0.36667236  0.62117534     0.05500
O1832       O  0.00576428  0.44004938  0.61630354    -0.57100
H1833       H  0.01266978  0.47138454  0.67553440     0.18400
O1834       O  0.52366014  0.38813025  0.74238191    -0.63800
H1835       H  0.49919694  0.34982961  0.68838976     0.16900
C1836       C  0.52213188  0.35407230  0.61808156     0.29100
C1837       C  0.51766653  0.32927353  0.59173178    -0.24700
C1838       C  0.48796191  0.31651363  0.56793413    -0.24000
C1839       C  0.96257142  0.32961102  0.57042259     0.40600
C1840       C  0.96731918  0.35511419  0.59662904    -0.26500
O1841       O  0.55061753  0.36453548  0.64199280    -0.58400
H1842       H  0.53721691  0.31915962  0.59061332     0.16200
O1843       O  0.93358319  0.31821121  0.54717061    -0.59800
H1844       H  0.94746677  0.36472886  0.59865897     0.14700
H1845       H  0.54669354  0.38951764  0.73385430     0.46500
H1846       H  0.57304739  0.37131092  0.62825870     0.41900
H1847       H  0.91194631  0.29996419  0.56033804     0.45300
H1848       H  0.03149398  0.44965183  0.60880016     0.36800
C1849       C  0.96436081  0.33827933  0.88858148    -0.27400
C1850       C  0.49312670  0.35108314  0.86457743     0.02200
C1851       C  0.51872296  0.33805518  0.86743425     0.30300
C1852       C  0.51582939  0.31357579  0.89449189    -0.19200
C1853       C  0.48696362  0.30074783  0.91853526    -0.28600
C1854       C  0.96091347  0.31315992  0.91517210     0.44300
C1855       C  0.49653472  0.37813655  0.83678119     0.05500
O1856       O  0.54672321  0.34907908  0.84388287    -0.57100
H1857       H  0.53608226  0.30435367  0.89648857     0.18400
O1858       O  0.93255394  0.30178079  0.93835606    -0.63800
H1859       H  0.94509702  0.34857447  0.88730858     0.16900
C1860       C  0.97039044  0.36923537  0.80988443     0.29100
C1861       C  0.97669429  0.39437498  0.78213895    -0.24700
C1862       C  0.50727110  0.43023422  0.77957334    -0.24000
C1863       C  0.53668865  0.43105862  0.80165629     0.40600
C1864       C  0.52950847  0.41019154  0.83280815    -0.26500
O1865       O  0.93959387  0.33549349  0.80926983    -0.58400
H1866       H  0.96048258  0.38442118  0.75949589     0.16200
O1867       O  0.57176042  0.44433341  0.79038244    -0.59800
H1868       H  0.55223536  0.41513149  0.85036107     0.14700
H1869       H  0.94180072  0.32028866  0.95733791     0.46500
H1870       H  0.94681470  0.31941343  0.79655965     0.41900
H1871       H  0.57600114  0.42307510  0.78718875     0.45300
H1872       H  0.53609128  0.33215785  0.82370833     0.36800
C1873       C  0.51481992  0.13243239  0.91195389    -0.27400
C1874       C  0.98390156  0.11069350  0.89115085     0.02200
C1875       C  0.95070508  0.11075403  0.89768575     0.30300
C1876       C  0.94958864  0.13442735  0.92294184    -0.19200
C1877       C  0.48144291  0.15857875  0.94171369    -0.28600
C1878       C  0.51383809  0.15607057  0.93707476     0.44300
C1879       C  0.98855261  0.09371274  0.85894934     0.05500
O1880       O  0.91951530  0.08829294  0.87887954    -0.57100
H1881       H  0.92414093  0.13503810  0.92655491     0.18400
O1882       O  0.54537699  0.17781638  0.95570179    -0.63800
H1883       H  0.54058457  0.13284394  0.90722951     0.16900
C1884       C  0.48371531  0.10595980  0.82633511     0.29100
C1885       C  0.49182454  0.09328088  0.79590876    -0.24700
C1886       C  0.00108626  0.06382466  0.79367949    -0.24000
C1887       C  0.01497475  0.06076068  0.82835164     0.40600
C1888       C  0.00580414  0.07235566  0.85979538    -0.26500
O1889       O  0.47444024  0.13340087  0.82364645    -0.58400
H1890       H  0.49353293  0.11107094  0.77466001     0.16200
O1891       O  0.03826968  0.04700306  0.83250054    -0.59800
H1892       H  0.01434941  0.06625895  0.88499108     0.14700
H1893       H  0.54383836  0.16373334  0.97746206     0.46500
H1894       H  0.49806624  0.15659824  0.82469426     0.41900
H1895       H  0.05782638  0.06240973  0.84958208     0.45300
H1896       H  0.91370246  0.10478772  0.86425840     0.36800
C1897       C  0.95583186  0.09610943  0.70012410    -0.27400
C1898       C  0.48557106  0.12448675  0.68299605     0.02200
C1899       C  0.52052936  0.13236148  0.69531411     0.30300
C1900       C  0.52452786  0.10911744  0.71989275    -0.19200
C1901       C  0.99546359  0.07338114  0.72926882    -0.28600
C1902       C  0.96112473  0.07405376  0.72563388     0.44300
C1903       C  0.48014982  0.14591060  0.65349803     0.05500
O1904       O  0.55161903  0.16204103  0.68304301    -0.57100
H1905       H  0.55224247  0.11912578  0.72746511     0.18400
O1906       O  0.93544836  0.05940230  0.75166994    -0.63800
H1907       H  0.92868851  0.09320973  0.69647723     0.16900
C1908       C  0.95303034  0.12822215  0.62697301     0.29100
C1909       C  0.95257285  0.14739790  0.59650637    -0.24700
C1910       C  0.47890432  0.18422409  0.59165059    -0.24000
C1911       C  0.50380260  0.20278110  0.61922139     0.40600
C1912       C  0.50387874  0.18386739  0.64993669    -0.26500
O1913       O  0.92698100  0.09209568  0.63006290    -0.58400
H1914       H  0.93234028  0.13303736  0.57604536     0.16200
O1915       O  0.52822144  0.23950624  0.61646373    -0.59800
H1916       H  0.52296418  0.19911817  0.67083900     0.14700
H1917       H  0.92932687  0.07851964  0.75916614     0.46500
H1918       H  0.94079257  0.07835003  0.63200131     0.41900
H1919       H  0.51437366  0.25211005  0.62355988     0.45300
H1920       H  0.55852105  0.15312878  0.66202938     0.36800
C1921       C  0.83851835  0.36033165  0.61681770    -0.27400
C1922       C  0.85973464  0.34824468  0.63619758     0.02200
C1923       C  0.85814652  0.31492682  0.62688836     0.30300
C1924       C  0.83634914  0.29490456  0.59810585    -0.19200
C1925       C  0.81573784  0.30751885  0.57809206    -0.28600
C1926       C  0.81702190  0.34064549  0.58794692     0.44300
C1927       C  0.88549817  0.37241211  0.66396400     0.05500
O1928       O  0.87810824  0.30191654  0.64541688    -0.57100
H1929       H  0.83576115  0.26946439  0.59137534     0.18400
O1930       O  0.79799231  0.35458061  0.56923307    -0.63800
H1931       H  0.83925964  0.38573467  0.62373908     0.16900
C1932       C  0.91085078  0.40819230  0.65622045     0.29100
C1933       C  0.93467305  0.43105012  0.68223354    -0.24700
C1934       C  0.93517050  0.42326734  0.71869935    -0.24000
C1935       C  0.90951729  0.38331371  0.72463115     0.40600
C1936       C  0.88581008  0.36005510  0.69785335    -0.26500
O1937       O  0.91422516  0.42113896  0.62225979    -0.58400
H1938       H  0.95557767  0.45283875  0.67001519     0.16200
O1939       O  0.90241324  0.36631220  0.75719305    -0.59800
H1940       H  0.86619526  0.33192157  0.70432230     0.14700
H1941       H  0.81490796  0.37000600  0.55049776     0.46500
H1942       H  0.93183624  0.41498784  0.61104236     0.41900
H1943       H  0.90189160  0.34236718  0.75462126     0.45300
H1944       H  0.90142165  0.31105795  0.63256652     0.36800
C1945       C  0.87038561  0.39898659  0.80863877    -0.27400
C1946       C  0.88430054  0.39277000  0.83992800     0.02200
C1947       C  0.92227216  0.40960677  0.84417178     0.30300
C1948       C  0.94540411  0.42905718  0.81649663    -0.19200
C1949       C  0.93350634  0.43419906  0.78254641    -0.28600
C1950       C  0.89321015  0.41879015  0.78056567     0.44300
C1951       C  0.85971520  0.36650515  0.86704443     0.05500
O1952       O  0.93762603  0.40730739  0.87574148    -0.57100
H1953       H  0.97323557  0.44049858  0.82377890     0.18400
O1954       O  0.87344915  0.41577110  0.74998207    -0.63800
H1955       H  0.84093525  0.38575718  0.80450806     0.16900
C1956       C  0.82863733  0.36753606  0.87975486     0.29100
C1957       C  0.80863277  0.34410859  0.90749569    -0.24700
C1958       C  0.81838490  0.31882352  0.92250843    -0.24000
C1959       C  0.84764147  0.31592343  0.90772122     0.40600
C1960       C  0.86776326  0.33949616  0.88033516    -0.26500
O1961       O  0.81681761  0.39011209  0.86428122    -0.58400
H1962       H  0.78499979  0.34557129  0.91696231     0.16200
O1963       O  0.85679017  0.29009420  0.91952650    -0.59800
H1964       H  0.88947669  0.33620840  0.86878103     0.14700
H1965       H  0.88806011  0.43605739  0.73387715     0.46500
H1966       H  0.81016937  0.40148360  0.88357543     0.41900
H1967       H  0.84390801  0.26910093  0.90330207     0.45300
H1968       H  0.93936145  0.42786612  0.88992861     0.36800
C1969       C  0.68629496  0.16596299  0.85495301    -0.27400
C1970       C  0.64855548  0.14242935  0.85916083     0.02200
C1971       C  0.63256278  0.14064870  0.89199448     0.30300
C1972       C  0.65387601  0.16326190  0.91952730    -0.19200
C1973       C  0.69140453  0.18703695  0.91509310    -0.28600
C1974       C  0.70777517  0.18796593  0.88279721     0.44300
C1975       C  0.62562004  0.12129794  0.82879126     0.05500
O1976       O  0.59611549  0.11687214  0.89740196    -0.57100
H1977       H  0.64121984  0.16183246  0.94457294     0.18400
O1978       O  0.74433972  0.21163638  0.87771015    -0.63800
H1979       H  0.69894759  0.16787657  0.82980926     0.16900
C1980       C  0.59762274  0.12740245  0.81579127     0.29100
C1981       C  0.57561331  0.10645377  0.78767588    -0.24700
C1982       C  0.57686489  0.07534525  0.77319019    -0.24000
C1983       C  0.61414072  0.08119111  0.77899291     0.40600
C1984       C  0.63477455  0.09919387  0.80907376    -0.26500
O1985       O  0.59253652  0.15504221  0.82913336    -0.58400
H1986       H  0.55725437  0.11571277  0.77920626     0.16200
O1987       O  0.63540219  0.07863269  0.75303174    -0.59800
H1988       H  0.66063307  0.09961671  0.81423489     0.14700
H1989       H  0.75689321  0.19698604  0.88272589     0.46500
H1990       H  0.56992836  0.14266366  0.84326029     0.41900
H1991       H  0.61938996  0.06233818  0.73463457     0.45300
H1992       H  0.59517632  0.09377273  0.90574310     0.36800
C1993       C  0.65587273  0.12167582  0.60199060    -0.27400
C1994       C  0.62620227  0.12695754  0.61118975     0.02200
C1995       C  0.62250543  0.15555705  0.59488775     0.30300
C1996       C  0.64871087  0.17881390  0.57080912    -0.19200
C1997       C  0.67911054  0.17432264  0.56239020    -0.28600
C1998       C  0.68196403  0.14474448  0.57764999     0.44300
C1999       C  0.60429348  0.10765704  0.64258913     0.05500
O2000       O  0.59547926  0.16327957  0.60479018    -0.57100
H2001       H  0.64565599  0.20124848  0.55956662     0.18400
O2002       O  0.71120178  0.13933842  0.57069345    -0.63800
H2003       H  0.65995173  0.10064666  0.61494863     0.16900
C2004       C  0.56604787  0.09004724  0.64328686     0.29100
C2005       C  0.54766307  0.07448144  0.67510201    -0.24700
C2006       C  0.56545883  0.07281815  0.70777364    -0.24000
C2007       C  0.60295500  0.10364685  0.70602999     0.40600
C2008       C  0.62256636  0.11395544  0.67456117    -0.26500
O2009       O  0.54603103  0.08738741  0.61332071    -0.58400
H2010       H  0.51956940  0.06734152  0.67276770     0.16200
O2011       O  0.61663970  0.13095679  0.73087380    -0.59800
H2012       H  0.65161951  0.13361222  0.67544233     0.14700
H2013       H  0.70165161  0.11880118  0.55375795     0.46500
H2014       H  0.54058360  0.06368406  0.60268209     0.41900
H2015       H  0.64338579  0.13985829  0.73382564     0.45300
H2016       H  0.57810044  0.15617208  0.58451392     0.36800
O2017       O  0.80141994  0.76781986  0.46311904    -0.74200
O2018       O  0.73179752  0.69953174  0.02818510    -0.74300
O2019       O  0.73862327  0.70391662  0.45658163    -0.74300
O2020       O  0.79617573  0.76323485  0.03490735    -0.74400
O2021       O  0.76591567  0.79500211  0.03402415    -0.74300
O2022       O  0.70627476  0.73379636  0.45622849    -0.74300
O2023       O  0.70165344  0.73142559  0.02788930    -0.74300
O2024       O  0.76929174  0.79772493  0.46231670    -0.74300
Ni2025     Ni  0.76807374  0.73147858  0.49568961     1.25400
Ni2026     Ni  0.73468082  0.76660710  0.99544337     1.25400
C2027       C  0.79585908  0.79370955  0.45100655     0.87900
C2028       C  0.70463473  0.70357801  0.03806007     0.87900
C2029       C  0.71312263  0.70941886  0.44360564     0.87900
C2030       C  0.79066666  0.78842697  0.04761660     0.88100
O2031       O  0.51779884  0.78055079  0.46125044    -0.74200
O2032       O  0.51253187  0.72696702  0.04587931    -0.74300
O2033       O  0.51523966  0.71517945  0.47483115    -0.74300
O2034       O  0.51642789  0.79179024  0.03113843    -0.74400
O2035       O  0.95531557  0.76494627  0.03135034    -0.74300
O2036       O  0.95427886  0.68787713  0.47190181    -0.74300
O2037       O  0.95136245  0.69887170  0.04368758    -0.74300
O2038       O  0.95674351  0.75392327  0.46063268    -0.74300
Ni2039     Ni  0.51660663  0.75438368  0.00350385     1.25400
Ni2040     Ni  0.95119769  0.72550961  0.00220721     1.25400
C2041       C  0.48775017  0.77710142  0.44787330     0.87900
C2042       C  0.48131463  0.70458996  0.05897826     0.87900
C2043       C  0.48466581  0.68893454  0.46402613     0.87900
C2044       C  0.48682235  0.79060379  0.04143232     0.88100
O2045       O  0.76934102  0.97617929  0.45992117    -0.74200
O2046       O  0.71147213  0.97179688  0.03810489    -0.74300
O2047       O  0.70710828  0.98022187  0.46800925    -0.74300
O2048       O  0.77361230  0.96674574  0.03014132    -0.74400
O2049       O  0.80698583  0.52787344  0.03060061    -0.74300
O2050       O  0.73993473  0.53878040  0.46907093    -0.74300
O2051       O  0.74472326  0.53255518  0.04210504    -0.74300
O2052       O  0.80136915  0.53381986  0.46115492    -0.74300
Ni2053     Ni  0.73819362  0.96893247  0.99879839     1.25400
Ni2054     Ni  0.77267827  0.53517402  0.00138136     1.25400
C2055       C  0.79454432  0.50325208  0.44761805     0.87900
C2056       C  0.71877627  0.50205929  0.05351183     0.87900
C2057       C  0.71308046  0.50992749  0.45584345     0.87900
C2058       C  0.80191113  0.49575839  0.03872714     0.88100
C2059       C  0.50681874  0.95805344  0.24792155    -0.02300
C2060       C  0.00086393  0.54385392  0.25413611    -0.02300
C2061       C  0.54516963  0.54699333  0.24349498    -0.02300
C2062       C  0.54793744  0.00382942  0.24538981    -0.02300
C2063       C  0.96004441  0.99980623  0.25007493    -0.02300
C2064       C  0.96166794  0.95613679  0.24938700    -0.02300
C2065       C  0.84580173  0.96230180  0.10987598    -0.27400
C2066       C  0.88196914  0.49065804  0.10861435     0.02200
C2067       C  0.89337073  0.51716461  0.08149647     0.30300
C2068       C  0.86717951  0.51827990  0.05831520    -0.19200
C2069       C  0.82989555  0.49173290  0.06029198    -0.28600
C2070       C  0.81985725  0.96292915  0.08644340     0.44300
C2071       C  0.90347215  0.49663314  0.14217891     0.05500
O2072       O  0.92943546  0.54328333  0.07856695    -0.57100
H2073       H  0.87594883  0.54034392  0.03916623     0.18400
O2074       O  0.78382214  0.93648977  0.08943244    -0.63800
H2075       H  0.83640997  0.94143477  0.13024064     0.16900
C2076       C  0.88689993  0.49647130  0.17338758     0.29100
C2077       C  0.90549668  0.50093300  0.20516289    -0.24700
C2078       C  0.94016890  0.00144449  0.21214854    -0.24000
C2079       C  0.95838543  0.00801633  0.17982567     0.40600
C2080       C  0.94062926  0.00536786  0.14620685    -0.26500
O2081       O  0.85395822  0.49674167  0.17302328    -0.58400
H2082       H  0.89323871  0.51087624  0.22288689     0.16200
O2083       O  0.99178722  0.01010791  0.18103438    -0.59800
H2084       H  0.95490364  0.00741683  0.12206186     0.14700
H2085       H  0.77328411  0.94611586  0.10690909     0.46500
H2086       H  0.83606967  0.47304582  0.18374108     0.41900
H2087       H  0.99900576  0.01062584  0.15621615     0.45300
H2088       H  0.93972792  0.53353866  0.06098046     0.36800
C2089       C  0.84313889  0.52298190  0.36096229    -0.27400
C2090       C  0.86247462  0.00729260  0.36502395     0.02200
C2091       C  0.85812865  0.98658494  0.39620230     0.30300
C2092       C  0.83482448  0.98594301  0.42231312    -0.19200
C2093       C  0.81727342  0.50317684  0.41889590    -0.28600
C2094       C  0.82070570  0.52309252  0.38775365     0.44300
C2095       C  0.88595056  0.00715024  0.33634437     0.05500
O2096       O  0.87741035  0.96795114  0.40240155    -0.57100
H2097       H  0.83181635  0.97012995  0.44612689     0.18400
O2098       O  0.80229060  0.54272236  0.38331194    -0.63800
H2099       H  0.84547156  0.53826621  0.33695117     0.16900
C2100       C  0.87151808  0.99400811  0.30329342     0.29100
C2101       C  0.89242802  0.98730683  0.27894841    -0.24700
C2102       C  0.93102950  0.99807106  0.28255177    -0.24000
C2103       C  0.93993301  0.50131206  0.31787309     0.40600
C2104       C  0.92081743  0.50906953  0.34300447    -0.26500
O2105       O  0.83553073  0.98384277  0.29547793    -0.58400
H2106       H  0.87464713  0.97080673  0.25858847     0.16200
O2107       O  0.96571222  0.49448262  0.33218318    -0.59800
H2108       H  0.93216252  0.51579265  0.36944041     0.14700
H2109       H  0.77695351  0.52449841  0.37620364     0.46500
H2110       H  0.83645906  0.00381737  0.28025624     0.41900
H2111       H  0.98009282  0.49706795  0.31181057     0.45300
H2112       H  0.87313729  0.95211262  0.38178749     0.36800
C2113       C  0.58963089  0.01117728  0.34382669    -0.27400
C2114       C  0.62627343  0.51730192  0.33784995     0.02200
C2115       C  0.63745712  0.51827146  0.30342625     0.30300
C2116       C  0.61336785  0.51352020  0.27503088    -0.19200
C2117       C  0.57608140  0.00776473  0.27902534    -0.28600
C2118       C  0.56581770  0.00526828  0.31518689     0.44300
C2119       C  0.64860224  0.51697117  0.36873601     0.05500
O2120       O  0.67161010  0.52246247  0.29697363    -0.57100
H2121       H  0.62698522  0.51739147  0.25042051     0.18400
O2122       O  0.53042240  0.98929387  0.32419987    -0.63800
H2123       H  0.57902043  0.00788661  0.37024552     0.16900
C2124       C  0.68362987  0.54644588  0.37634281     0.29100
C2125       C  0.70387574  0.54444427  0.40551537    -0.24700
C2126       C  0.68804988  0.01447674  0.43011999    -0.24000
C2127       C  0.65381733  0.98409286  0.42128940     0.40600
C2128       C  0.63359149  0.98587608  0.39214431    -0.26500
O2129       O  0.69834619  0.57720960  0.35542718    -0.58400
H2130       H  0.73116222  0.56700821  0.41036280     0.16200
O2131       O  0.63963069  0.95252102  0.44108088    -0.59800
H2132       H  0.60755075  0.96215839  0.38570390     0.14700
H2133       H  0.51858223  0.99070203  0.30253077     0.46500
H2134       H  0.69309632  0.59500559  0.36761336     0.41900
H2135       H  0.64554434  0.93561683  0.42808673     0.45300
H2136       H  0.68605247  0.54771022  0.28749908     0.36800
C2137       C  0.61600551  0.52641065  0.16362308    -0.27400
C2138       C  0.62790500  0.00128167  0.16701015     0.02200
C2139       C  0.61095269  0.97371462  0.19227963     0.30300
C2140       C  0.58409455  0.97390780  0.21399381    -0.19200
C2141       C  0.57208438  0.00085179  0.21247980    -0.28600
C2142       C  0.58393725  0.52118646  0.18024316     0.44300
C2143       C  0.65316115  0.00049369  0.14016344     0.05500
O2144       O  0.62223462  0.94803852  0.19782582    -0.57100
H2145       H  0.57445441  0.95377664  0.23387737     0.18400
O2146       O  0.55955435  0.52362466  0.15762120    -0.63800
H2147       H  0.62559209  0.54472030  0.14116172     0.16900
C2148       C  0.64278883  0.96922332  0.11935469     0.29100
C2149       C  0.66505399  0.97005153  0.09186182    -0.24700
C2150       C  0.69744283  0.00225785  0.08339531    -0.24000
C2151       C  0.70992874  0.53044751  0.10865831     0.40600
C2152       C  0.68764118  0.52924233  0.13645315    -0.26500
O2153       O  0.60990564  0.93818481  0.12436861    -0.58400
H2154       H  0.65608594  0.94555152  0.07630789     0.16200
O2155       O  0.74397247  0.56047249  0.10524665    -0.59800
H2156       H  0.69752304  0.55215333  0.15435988     0.14700
H2157       H  0.55610547  0.50770617  0.13711355     0.46500
H2158       H  0.59146181  0.94263672  0.11150089     0.41900
H2159       H  0.76065173  0.55474083  0.11972790     0.45300
H2160       H  0.60055975  0.92404950  0.19240952     0.36800
C2161       C  0.50239857  0.87689034  0.18556942    -0.27400
C2162       C  0.50018302  0.88949114  0.15220903     0.02200
C2163       C  0.00437295  0.92460803  0.14910371     0.29100
C2164       C  0.00795060  0.94480683  0.17954704    -0.19200
C2165       C  0.50734947  0.93289868  0.21429878    -0.28600
C2166       C  0.51079372  0.89937980  0.21498824     0.44300
C2167       C  0.49844371  0.86735971  0.12133944     0.05500
O2168       O  0.00519088  0.93977319  0.11662884    -0.57100
H2169       H  0.01173459  0.97079735  0.17608877     0.18400
O2170       O  0.52547960  0.88891606  0.24262671    -0.63800
H2171       H  0.50167722  0.85064067  0.18864202     0.16900
C2172       C  0.52361407  0.85401516  0.11865677     0.29100
C2173       C  0.51930137  0.82965639  0.09193141    -0.24700
C2174       C  0.49023573  0.81798566  0.06750853    -0.24000
C2175       C  0.96544871  0.83183976  0.06958695     0.40600
C2176       C  0.97009980  0.85698017  0.09607288    -0.26500
O2177       O  0.55130867  0.86324194  0.14329946    -0.58400
H2178       H  0.53833268  0.81888589  0.09107066     0.16200
O2179       O  0.93706501  0.82143434  0.04576361    -0.59800
H2180       H  0.95071727  0.86722567  0.09774835     0.14700
H2181       H  0.54857393  0.89039149  0.23416339     0.46500
H2182       H  0.57387624  0.86891200  0.13026663     0.41900
H2183       H  0.91546898  0.80145242  0.05757173     0.45300
H2184       H  0.03031554  0.94818100  0.10785789     0.36800
C2185       C  0.96446184  0.83664098  0.38727586    -0.27400
C2186       C  0.49348450  0.85021921  0.36356794     0.02200
C2187       C  0.52000717  0.83840410  0.36686699     0.30300
C2188       C  0.51783370  0.81449111  0.39421390    -0.19200
C2189       C  0.48879043  0.80103076  0.41808500    -0.28600
C2190       C  0.96174339  0.81209946  0.41414987     0.44300
C2191       C  0.49666866  0.87745072  0.33610881     0.05500
O2192       O  0.54831978  0.85022828  0.34357310    -0.57100
H2193       H  0.53881269  0.80626267  0.39660396     0.18400
O2194       O  0.93317402  0.80014134  0.43715670    -0.63800
H2195       H  0.94456420  0.84610386  0.38569828     0.16900
C2196       C  0.97080101  0.86867141  0.30896200     0.29100
C2197       C  0.97718349  0.89416646  0.28154437    -0.24700
C2198       C  0.50774654  0.93011735  0.27945932    -0.24000
C2199       C  0.53691335  0.93103065  0.30195858     0.40600
C2200       C  0.52935587  0.90993005  0.33292196    -0.26500
O2201       O  0.94026198  0.83475426  0.30779599    -0.58400
H2202       H  0.96120255  0.88438894  0.25868489     0.16200
O2203       O  0.57216512  0.94440820  0.29115759    -0.59800
H2204       H  0.55184968  0.91502623  0.35087012     0.14700
H2205       H  0.94263245  0.81754757  0.45706628     0.46500
H2206       H  0.94704862  0.81979412  0.29274887     0.41900
H2207       H  0.57657710  0.92322909  0.28816401     0.45300
H2208       H  0.53835747  0.83314567  0.32344944     0.36800
C2209       C  0.51830841  0.63516400  0.40997371    -0.27400
C2210       C  0.98632381  0.61125273  0.39159295     0.02200
C2211       C  0.95290218  0.60979246  0.40024316     0.30300
C2212       C  0.95230999  0.63400788  0.42511582    -0.19200
C2213       C  0.48491074  0.66014387  0.44151982    -0.28600
C2214       C  0.51789028  0.65940010  0.43472885     0.44300
C2215       C  0.98964364  0.59372396  0.35924420     0.05500
O2216       O  0.92087652  0.58527435  0.38387129    -0.57100
H2217       H  0.92648058  0.63327427  0.43037936     0.18400
O2218       O  0.55040905  0.68353478  0.45062630    -0.63800
H2219       H  0.54427109  0.63675893  0.40353029     0.16900
C2220       C  0.48302105  0.60507145  0.32688390     0.29100
C2221       C  0.49061892  0.59251065  0.29607629    -0.24700
C2222       C  0.00087409  0.56379748  0.29333069    -0.24000
C2223       C  0.01576902  0.56122385  0.32761967     0.40600
C2224       C  0.00741692  0.57293244  0.35940446    -0.26500
O2225       O  0.47245857  0.63160788  0.32471264    -0.58400
H2226       H  0.49137575  0.61004149  0.27496787     0.16200
O2227       O  0.03933779  0.54782079  0.33101647    -0.59800
H2228       H  0.01705108  0.56744253  0.38429062     0.14700
H2229       H  0.55316667  0.66998280  0.47109939     0.46500
H2230       H  0.49557827  0.65528124  0.32602739     0.41900
H2231       H  0.05927330  0.56340727  0.34767930     0.45300
H2232       H  0.91417102  0.60005582  0.36769763     0.36800
C2233       C  0.95490705  0.59621295  0.20039185    -0.27400
C2234       C  0.48473204  0.62506458  0.18383262     0.02200
C2235       C  0.51962990  0.63282841  0.19612356     0.30300
C2236       C  0.52363979  0.60917791  0.22008072    -0.19200
C2237       C  0.99459685  0.57335055  0.22916416    -0.28600
C2238       C  0.96011603  0.57373886  0.22548128     0.44300
C2239       C  0.47958072  0.64675461  0.15448644     0.05500
O2240       O  0.55074146  0.66255879  0.18400389    -0.57100
H2241       H  0.55145219  0.61883523  0.22695526     0.18400
O2242       O  0.93436980  0.55873363  0.25141256    -0.63800
H2243       H  0.92773413  0.59322050  0.19666178     0.16900
C2244       C  0.95311383  0.62917820  0.12745785     0.29100
C2245       C  0.95329861  0.64853841  0.09692447    -0.24700
C2246       C  0.47976659  0.68539052  0.09242867    -0.24000
C2247       C  0.50408845  0.70381072  0.12040968     0.40600
C2248       C  0.50336131  0.68475376  0.15128747    -0.26500
O2249       O  0.92727087  0.59291982  0.13003685    -0.58400
H2250       H  0.93352274  0.63427633  0.07609606     0.16200
O2251       O  0.52878412  0.74047650  0.11786526    -0.59800
H2252       H  0.52203736  0.69984340  0.17251861     0.14700
H2253       H  0.92794873  0.57759862  0.25905032     0.46500
H2254       H  0.94128407  0.57933576  0.13134122     0.41900
H2255       H  0.51462666  0.75325693  0.12322317     0.45300
H2256       H  0.55664989  0.65414652  0.16207735     0.36800
C2257       C  0.83534273  0.86103133  0.11916500    -0.27400
C2258       C  0.85796265  0.84947813  0.13679836     0.02200
C2259       C  0.85722420  0.81702594  0.12587226     0.30300
C2260       C  0.83519390  0.79754654  0.09702117    -0.19200
C2261       C  0.81317144  0.80960977  0.07862088    -0.28600
C2262       C  0.81315573  0.84157446  0.09042882     0.44300
C2263       C  0.88434613  0.87335545  0.16436192     0.05500
O2264       O  0.87821652  0.80429088  0.14292312    -0.57100
H2265       H  0.83553171  0.77289229  0.08898827     0.18400
O2266       O  0.79183190  0.85431721  0.07405590    -0.63800
H2267       H  0.83531146  0.88567629  0.12750993     0.16900
C2268       C  0.91001424  0.90894694  0.15647621     0.29100
C2269       C  0.93466722  0.93146924  0.18221060    -0.24700
C2270       C  0.93564625  0.92362311  0.21865786    -0.24000
C2271       C  0.90979363  0.88371047  0.22455251     0.40600
C2272       C  0.88533397  0.86072233  0.19799511    -0.26500
O2273       O  0.91293847  0.92194493  0.12257433    -0.58400
H2274       H  0.95555002  0.95297350  0.16963069     0.16200
O2275       O  0.90315233  0.86657444  0.25702021    -0.59800
H2276       H  0.86567779  0.83260092  0.20446112     0.14700
H2277       H  0.80847703  0.87379755  0.05768923     0.46500
H2278       H  0.92936104  0.91463982  0.11064992     0.41900
H2279       H  0.90235424  0.84254572  0.25405165     0.45300
H2280       H  0.90205838  0.81603392  0.13073429     0.36800
C2281       C  0.87157965  0.89939030  0.30936354    -0.27400
C2282       C  0.88566646  0.89315943  0.34052931     0.02200
C2283       C  0.92364360  0.90978667  0.34448275     0.30300
C2284       C  0.94659706  0.92930761  0.31669904    -0.19200
C2285       C  0.93449599  0.93443340  0.28279742    -0.28600
C2286       C  0.89420501  0.91907076  0.28112453     0.44300
C2287       C  0.86113552  0.86706615  0.36777469     0.05500
O2288       O  0.93916873  0.90717426  0.37584056    -0.57100
H2289       H  0.97442408  0.94067361  0.32388270     0.18400
O2290       O  0.87420782  0.91612934  0.25073363    -0.63800
H2291       H  0.84209635  0.88629964  0.30550630     0.16900
C2292       C  0.83062495  0.86880178  0.38100495     0.29100
C2293       C  0.81022913  0.84505014  0.40840665    -0.24700
C2294       C  0.81910537  0.81884616  0.42267650    -0.24000
C2295       C  0.84816977  0.81570405  0.40773450     0.40600
C2296       C  0.86851012  0.83943030  0.38050157    -0.26500
O2297       O  0.81964248  0.89233305  0.36623274    -0.58400
H2298       H  0.78695100  0.84697652  0.41817168     0.16200
O2299       O  0.85698394  0.78956589  0.41931034    -0.59800
H2300       H  0.88978208  0.83573330  0.36854515     0.14700
H2301       H  0.88871088  0.93643878  0.23460860     0.46500
H2302       H  0.81306101  0.90337781  0.38587059     0.41900
H2303       H  0.84426110  0.76885080  0.40276140     0.45300
H2304       H  0.94118704  0.92771789  0.39024720     0.36800
C2305       C  0.68605076  0.66842706  0.35271670    -0.27400
C2306       C  0.64874166  0.64338319  0.35722138     0.02200
C2307       C  0.63298614  0.63972410  0.39054496     0.30300
C2308       C  0.65414777  0.66180217  0.41843976    -0.19200
C2309       C  0.69126110  0.68706565  0.41376903    -0.28600
C2310       C  0.70738045  0.69002814  0.38083843     0.44300
C2311       C  0.62592003  0.62252121  0.32673931     0.05500
O2312       O  0.59692059  0.61467384  0.39607629    -0.57100
H2313       H  0.64169888  0.65888987  0.44389771     0.18400
O2314       O  0.74349934  0.71512315  0.37550922    -0.63800
H2315       H  0.69843389  0.67174610  0.32717249     0.16900
C2316       C  0.59783926  0.62856065  0.31397039     0.29100
C2317       C  0.57542424  0.60731298  0.28620128    -0.24700
C2318       C  0.57668607  0.57618112  0.27164438    -0.24000
C2319       C  0.61407154  0.58218729  0.27707901     0.40600
C2320       C  0.63503140  0.60047220  0.30692415    -0.26500
O2321       O  0.59281844  0.65618965  0.32743524    -0.58400
H2322       H  0.55644618  0.61610513  0.27863580     0.16200
O2323       O  0.63501178  0.57927555  0.25100319    -0.59800
H2324       H  0.66095697  0.60097649  0.31195416     0.14700
H2325       H  0.75734924  0.70187161  0.38118146     0.46500
H2326       H  0.57092896  0.64384464  0.34251055     0.41900
H2327       H  0.61877536  0.56247515  0.23303455     0.45300
H2328       H  0.59707819  0.59175845  0.40321287     0.36800
C2329       C  0.64987632  0.62011202  0.09664157    -0.27400
C2330       C  0.62247218  0.62736841  0.10901486     0.02200
C2331       C  0.62085879  0.65837267  0.09604440     0.30300
C2332       C  0.64730419  0.68231068  0.07251515    -0.19200
C2333       C  0.67583796  0.67604632  0.06129084    -0.28600
C2334       C  0.67611139  0.64380437  0.07271358     0.44300
C2335       C  0.60132234  0.60728575  0.14047464     0.05500
O2336       O  0.59564866  0.66741464  0.10859301    -0.57100
H2337       H  0.64601184  0.70659331  0.06400497     0.18400
O2338       O  0.70267696  0.63581640  0.06191694    -0.63800
H2339       H  0.65192903  0.59674673  0.10666774     0.16900
C2340       C  0.56317699  0.59019327  0.14212048     0.29100
C2341       C  0.54553625  0.57445567  0.17422035    -0.24700
C2342       C  0.56403254  0.57242546  0.20633654    -0.24000
C2343       C  0.60160278  0.60285314  0.20380974     0.40600
C2344       C  0.62042559  0.61264683  0.17187962    -0.26500
O2345       O  0.54264440  0.58873448  0.11290192    -0.58400
H2346       H  0.51743765  0.56742207  0.17253651     0.16200
O2347       O  0.61565357  0.63073759  0.22807522    -0.59800
H2348       H  0.64961145  0.63184731  0.17215450     0.14700
H2349       H  0.69162384  0.61925649  0.04154498     0.46500
H2350       H  0.53224187  0.56330850  0.10413275     0.41900
H2351       H  0.64249252  0.63993027  0.23048601     0.45300
H2352       H  0.57660944  0.66030041  0.08981135     0.36800
O2353       O  0.80101145  0.76931875  0.96308260    -0.74200
O2354       O  0.73163346  0.69722744  0.52765548    -0.74300
O2355       O  0.73818333  0.70571922  0.95739368    -0.74300
O2356       O  0.79571976  0.76108738  0.53485109    -0.74400
O2357       O  0.76506524  0.79248029  0.53376469    -0.74300
O2358       O  0.70586364  0.73563430  0.95730768    -0.74300
O2359       O  0.70130222  0.72895110  0.52688585    -0.74300
O2360       O  0.76910024  0.79944463  0.96224837    -0.74300
Ni2361     Ni  0.76803676  0.73346714  0.99606972     1.25400
Ni2362     Ni  0.73448743  0.76438904  0.49483013     1.25400
C2363       C  0.79525826  0.79493568  0.95057853     0.87900
C2364       C  0.70458995  0.70144995  0.53763353     0.87900
C2365       C  0.71253082  0.71111649  0.94471982     0.87900
C2366       C  0.78987794  0.78610710  0.54748178     0.88100
O2367       O  0.51601642  0.78027841  0.96136437    -0.74200
O2368       O  0.51410253  0.72590757  0.54497793    -0.74300
O2369       O  0.51302196  0.71497300  0.97599920    -0.74300
O2370       O  0.51759528  0.79068409  0.53130802    -0.74400
O2371       O  0.95645235  0.76332088  0.53099470    -0.74300
O2372       O  0.95205659  0.68813400  0.97341322    -0.74300
O2373       O  0.95292754  0.69739646  0.54230518    -0.74300
O2374       O  0.95500518  0.75420353  0.96109757    -0.74300
Ni2375     Ni  0.51830869  0.75396831  0.50299614     1.25400
Ni2376     Ni  0.95287875  0.72458542  0.50124889     1.25400
C2377       C  0.48600502  0.77685766  0.94794997     0.87900
C2378       C  0.48282070  0.70323844  0.55777637     0.87900
C2379       C  0.48225511  0.68878490  0.96551851     0.87900
C2380       C  0.48773945  0.78901450  0.54148940     0.88100
O2381       O  0.76743138  0.97044876  0.95993991    -0.74200
O2382       O  0.71392245  0.97614243  0.53901850    -0.74300
O2383       O  0.70547822  0.97531258  0.96691373    -0.74300
O2384       O  0.77625703  0.97172264  0.52981980    -0.74400
O2385       O  0.80858158  0.52832294  0.53115900    -0.74300
O2386       O  0.73662948  0.53790943  0.97082155    -0.74300
O2387       O  0.74606304  0.53364666  0.54071628    -0.74300
O2388       O  0.79807402  0.53356930  0.96077308    -0.74300
Ni2389     Ni  0.74038541  0.97396435  0.49921237     1.25400
Ni2390     Ni  0.77505508  0.53583535  0.50084501     1.25400
C2391       C  0.79105719  0.50313246  0.94678681     0.87900
C2392       C  0.71958740  0.50336804  0.55196568     0.87900
C2393       C  0.70969373  0.50902688  0.95772581     0.87900
C2394       C  0.80315492  0.49613082  0.53951355     0.88100
C2395       C  0.50647933  0.95691596  0.74689163    -0.02300
C2396       C  0.00022490  0.54430821  0.75549406    -0.02300
C2397       C  0.54471996  0.54766927  0.74486189    -0.02300
C2398       C  0.54764036  0.00271473  0.74517816    -0.02300
C2399       C  0.96001449  0.99894506  0.74882234    -0.02300
C2400       C  0.96144248  0.95515144  0.74806522    -0.02300
C2401       C  0.84871470  0.96497344  0.60737258    -0.27400
C2402       C  0.88287109  0.48951046  0.60887444     0.02200
C2403       C  0.89458401  0.51550863  0.58126619     0.30300
C2404       C  0.86849895  0.51716409  0.55827923    -0.19200
C2405       C  0.83091483  0.49175246  0.56114712    -0.28600
C2406       C  0.82282473  0.96647114  0.58450117     0.44300
C2407       C  0.90411073  0.49597934  0.64274031     0.05500
O2408       O  0.93090883  0.54056900  0.57755889    -0.57100
H2409       H  0.87758816  0.53878342  0.53862353     0.18400
O2410       O  0.78679048  0.93996713  0.58720434    -0.63800
H2411       H  0.83926532  0.94350544  0.62716896     0.16900
C2412       C  0.88707621  0.49599098  0.67362930     0.29100
C2413       C  0.90532543  0.50097877  0.70565860    -0.24700
C2414       C  0.94070416  0.00107504  0.71083430    -0.24000
C2415       C  0.95946567  0.00774303  0.67885128     0.40600
C2416       C  0.94257601  0.00617036  0.64498012    -0.26500
O2417       O  0.85400992  0.49601418  0.67264656    -0.58400
H2418       H  0.89279949  0.51108906  0.72290470     0.16200
O2419       O  0.99257404  0.00915331  0.68060773    -0.59800
H2420       H  0.95718788  0.00831319  0.62103720     0.14700
H2421       H  0.77629541  0.94907808  0.60522418     0.46500
H2422       H  0.83621069  0.47260851  0.68390815     0.41900
H2423       H  0.00024793  0.01003642  0.65590196     0.45300
H2424       H  0.94062946  0.52904191  0.56130037     0.36800
C2425       C  0.84013056  0.52512522  0.86009961    -0.27400
C2426       C  0.86188395  0.00260120  0.86548356     0.02200
C2427       C  0.85894754  0.98323989  0.89733574     0.30300
C2428       C  0.83512239  0.98191350  0.92328424    -0.19200
C2429       C  0.81324776  0.50328479  0.91745848    -0.28600
C2430       C  0.81738801  0.52447763  0.88704444     0.44300
C2431       C  0.88527759  0.00275518  0.83649121     0.05500
O2432       O  0.87993494  0.96653522  0.90429790    -0.57100
H2433       H  0.83321095  0.96721745  0.94762166     0.18400
O2434       O  0.79940391  0.54461289  0.88350737    -0.63800
H2435       H  0.84317145  0.54145807  0.83668633     0.16900
C2436       C  0.87101118  0.99107307  0.80300703     0.29100
C2437       C  0.89233973  0.98633757  0.77762628    -0.24700
C2438       C  0.93087357  0.99689101  0.78115257    -0.24000
C2439       C  0.93771174  0.50284683  0.81941710     0.40600
C2440       C  0.91821299  0.51184688  0.84312768    -0.26500
O2441       O  0.83478774  0.98026055  0.79562367    -0.58400
H2442       H  0.87469524  0.97057791  0.75683826     0.16200
O2443       O  0.96166849  0.49469363  0.83597351    -0.59800
H2444       H  0.92846785  0.51854537  0.86994150     0.14700
H2445       H  0.77429994  0.52703042  0.87517466     0.46500
H2446       H  0.83510599  0.99964394  0.77991932     0.41900
H2447       H  0.97701590  0.49639788  0.81688596     0.45300
H2448       H  0.87509600  0.94911000  0.88495152     0.36800
C2449       C  0.58975654  0.00910286  0.84359547    -0.27400
C2450       C  0.62388302  0.51715375  0.83928872     0.02200
C2451       C  0.63608677  0.51868572  0.80515132     0.30300
C2452       C  0.61271930  0.51411389  0.77617160    -0.19200
C2453       C  0.57564443  0.00626313  0.77888973    -0.28600
C2454       C  0.56568302  0.00359376  0.81533234     0.44300
C2455       C  0.64553683  0.51658003  0.87059709     0.05500
O2456       O  0.67051249  0.52321523  0.79957490    -0.57100
H2457       H  0.62670840  0.51802048  0.75174936     0.18400
O2458       O  0.53045038  0.98748325  0.82506282    -0.63800
H2459       H  0.57949311  0.00578126  0.87016648     0.16900
C2460       C  0.67931459  0.54690980  0.88002312     0.29100
C2461       C  0.69922771  0.54469317  0.90934775    -0.24700
C2462       C  0.68746614  0.00995778  0.92848696    -0.24000
C2463       C  0.65256746  0.98033098  0.92033940     0.40600
C2464       C  0.63253383  0.98255275  0.89129501    -0.26500
O2465       O  0.69319029  0.57873147  0.86070000    -0.58400
H2466       H  0.72563344  0.56803264  0.91552433     0.16200
O2467       O  0.63745713  0.94926258  0.94086863    -0.59800
H2468       H  0.60589862  0.95943567  0.88534125     0.14700
H2469       H  0.51809063  0.98676804  0.80312587     0.46500
H2470       H  0.68444922  0.59406014  0.87255354     0.41900
H2471       H  0.64273420  0.93153639  0.92857922     0.45300
H2472       H  0.68555038  0.54920879  0.79233212     0.36800
C2473       C  0.61688561  0.52811576  0.66462113    -0.27400
C2474       C  0.62983928  0.00277474  0.66879933     0.02200
C2475       C  0.61162034  0.97383765  0.69248017     0.30300
C2476       C  0.58371486  0.97289977  0.71338839    -0.19200
C2477       C  0.57190750  0.00000301  0.71234721    -0.28600
C2478       C  0.58477775  0.52285436  0.68130127     0.44300
C2479       C  0.65526703  0.00252823  0.64198268     0.05500
O2480       O  0.62260554  0.94785164  0.69730337    -0.57100
H2481       H  0.57351815  0.95211417  0.73260073     0.18400
O2482       O  0.56058558  0.52555147  0.65865241    -0.63800
H2483       H  0.62674694  0.54703864  0.64272986     0.16900
C2484       C  0.64360153  0.97279970  0.61883347     0.29100
C2485       C  0.66595220  0.97421607  0.59121197    -0.24700
C2486       C  0.69976831  0.00567026  0.58497876    -0.24000
C2487       C  0.70881051  0.53338384  0.60515154     0.40600
C2488       C  0.68658800  0.53206692  0.63316796    -0.26500
O2489       O  0.60940474  0.94295028  0.62174299    -0.58400
H2490       H  0.65595907  0.95094515  0.57375700     0.16200
O2491       O  0.74150337  0.56471212  0.60003446    -0.59800
H2492       H  0.69562802  0.55589185  0.64974618     0.14700
H2493       H  0.55716988  0.50978494  0.63803178     0.46500
H2494       H  0.59292903  0.94909888  0.60742990     0.41900
H2495       H  0.76025069  0.56003600  0.61198011     0.45300
H2496       H  0.60135955  0.92431960  0.68993389     0.36800
C2497       C  0.50078301  0.87508803  0.68481820    -0.27400
C2498       C  0.49879688  0.88762422  0.65142373     0.02200
C2499       C  0.00406214  0.92310955  0.64797815     0.29100
C2500       C  0.00804864  0.94371604  0.67825755    -0.19200
C2501       C  0.50710585  0.93184345  0.71312571    -0.28600
C2502       C  0.51014233  0.89808128  0.71389977     0.44300
C2503       C  0.49735386  0.86536988  0.62088505     0.05500
O2504       O  0.00566635  0.93823722  0.61532714    -0.57100
H2505       H  0.01242869  0.96985765  0.67445413     0.18400
O2506       O  0.52541991  0.88789186  0.74124044    -0.63800
H2507       H  0.49978449  0.84871255  0.68800208     0.16900
C2508       C  0.52359630  0.85343263  0.61807721     0.29100
C2509       C  0.51995614  0.82907279  0.59162670    -0.24700
C2510       C  0.49046625  0.81609325  0.56756878    -0.24000
C2511       C  0.96452163  0.82849375  0.56986308     0.40600
C2512       C  0.96842446  0.85351248  0.59616523    -0.26500
O2513       O  0.55188228  0.86418178  0.64224668    -0.58400
H2514       H  0.53992770  0.81948036  0.59063389     0.16200
O2515       O  0.93581192  0.81692174  0.54627435    -0.59800
H2516       H  0.94821702  0.86269719  0.59800638     0.14700
H2517       H  0.54820120  0.88906403  0.73223421     0.46500
H2518       H  0.57473446  0.87342718  0.62855561     0.41900
H2519       H  0.91465825  0.79675110  0.55842057     0.45300
H2520       H  0.03125022  0.94738609  0.60755526     0.36800
C2521       C  0.96266894  0.83457869  0.88492427    -0.27400
C2522       C  0.49272471  0.84901651  0.86243421     0.02200
C2523       C  0.51986625  0.83818888  0.86719171     0.30300
C2524       C  0.51716825  0.81434714  0.89476647    -0.19200
C2525       C  0.48721743  0.80023822  0.91761347    -0.28600
C2526       C  0.95962120  0.81034675  0.91221897     0.44300
C2527       C  0.49612405  0.87601964  0.83469783     0.05500
O2528       O  0.54931777  0.85093658  0.84517944    -0.57100
H2529       H  0.53858680  0.80684142  0.89824730     0.18400
O2530       O  0.93013654  0.79771602  0.93417050    -0.63800
H2531       H  0.94213479  0.84312716  0.88206101     0.16900
C2532       C  0.97055446  0.86696580  0.80722618     0.29100
C2533       C  0.97672955  0.89262763  0.78005503    -0.24700
C2534       C  0.50717821  0.92867257  0.77820356    -0.24000
C2535       C  0.53628621  0.92962370  0.80075195     0.40600
C2536       C  0.52859067  0.90876521  0.83184632    -0.26500
O2537       O  0.94068381  0.83262114  0.80541586    -0.58400
H2538       H  0.96085025  0.88285979  0.75713827     0.16200
O2539       O  0.57144591  0.94253804  0.78982270    -0.59800
H2540       H  0.55094341  0.91418185  0.85008287     0.14700
H2541       H  0.93683353  0.81730588  0.95180851     0.46500
H2542       H  0.94839694  0.81835710  0.79041487     0.41900
H2543       H  0.57565006  0.92118001  0.78723832     0.45300
H2544       H  0.54041321  0.83463124  0.82443095     0.36800
C2545       C  0.51518243  0.63373807  0.91265351    -0.27400
C2546       C  0.98394943  0.61185468  0.89227547     0.02200
C2547       C  0.95082584  0.61181325  0.89936322     0.30300
C2548       C  0.95002123  0.63550630  0.92472578    -0.19200
C2549       C  0.48211176  0.65976632  0.94309904    -0.28600
C2550       C  0.51450316  0.65738717  0.93793876     0.44300
C2551       C  0.98801753  0.59459920  0.86002606     0.05500
O2552       O  0.91937107  0.58924941  0.88098215    -0.57100
H2553       H  0.92459568  0.63605378  0.92871827     0.18400
O2554       O  0.54628382  0.67925510  0.95618465    -0.63800
H2555       H  0.54088966  0.63419791  0.90750162     0.16900
C2556       C  0.48271963  0.60656025  0.82745756     0.29100
C2557       C  0.48970873  0.59309511  0.79690215    -0.24700
C2558       C  0.99971052  0.56410094  0.79460251    -0.24000
C2559       C  0.01380463  0.56120708  0.82925727     0.40600
C2560       C  0.00485425  0.57291658  0.86073881    -0.26500
O2561       O  0.47401037  0.63440723  0.82486169    -0.58400
H2562       H  0.49034342  0.61032663  0.77558613     0.16200
O2563       O  0.03768327  0.54820957  0.83340879    -0.59800
H2564       H  0.01359595  0.56693126  0.88588580     0.14700
H2565       H  0.54468401  0.66565258  0.97830146     0.46500
H2566       H  0.49779600  0.65737472  0.82665806     0.41900
H2567       H  0.05724144  0.56396331  0.85032599     0.45300
H2568       H  0.91407904  0.60561343  0.86559649     0.36800
C2569       C  0.95461365  0.59580017  0.69996951    -0.27400
C2570       C  0.48469877  0.62492310  0.68402546     0.02200
C2571       C  0.51935517  0.63339957  0.69752196     0.30300
C2572       C  0.52315075  0.60973163  0.72163664    -0.19200
C2573       C  0.99413800  0.57371976  0.73024597    -0.28600
C2574       C  0.95962775  0.57388304  0.72582196     0.44300
C2575       C  0.48002206  0.64602987  0.65394461     0.05500
O2576       O  0.55041443  0.66388181  0.68645316    -0.57100
H2577       H  0.55082412  0.61961889  0.72912885     0.18400
O2578       O  0.93360972  0.55923894  0.75153818    -0.63800
H2579       H  0.92736383  0.59228856  0.69518911     0.16900
C2580       C  0.95532989  0.62766552  0.62590047     0.29100
C2581       C  0.95587099  0.64672175  0.59504036    -0.24700
C2582       C  0.48107253  0.68406558  0.59125357    -0.24000
C2583       C  0.50364743  0.70309961  0.62007047     0.40600
C2584       C  0.50258556  0.68426114  0.65120921    -0.26500
O2585       O  0.93107349  0.59089188  0.62782961    -0.58400
H2586       H  0.93742022  0.63194721  0.57348989     0.16200
O2587       O  0.52682173  0.74017740  0.61813570    -0.59800
H2588       H  0.51996201  0.69969658  0.67306179     0.14700
H2589       H  0.92725267  0.57829502  0.75867598     0.46500
H2590       H  0.94646691  0.57876111  0.62971888     0.41900
H2591       H  0.51107307  0.75157781  0.62201077     0.45300
H2592       H  0.56001939  0.65517278  0.66735357     0.36800
C2593       C  0.83577451  0.86061282  0.61700298    -0.27400
C2594       C  0.85756528  0.84869938  0.63565578     0.02200
C2595       C  0.85555951  0.81521639  0.62629539     0.30300
C2596       C  0.83323486  0.79510769  0.59787789    -0.19200
C2597       C  0.81220551  0.80757602  0.57837325    -0.28600
C2598       C  0.81332340  0.84052559  0.58867558     0.44300
C2599       C  0.88404313  0.87279488  0.66302357     0.05500
O2600       O  0.87565527  0.80208465  0.64440395    -0.57100
H2601       H  0.83261240  0.76968977  0.59098988     0.18400
O2602       O  0.79306375  0.85375665  0.57103314    -0.63800
H2603       H  0.83662905  0.88602217  0.62416206     0.16900
C2604       C  0.91004827  0.90826790  0.65498619     0.29100
C2605       C  0.93477258  0.93079942  0.68071258    -0.24700
C2606       C  0.93558904  0.92284617  0.71718295    -0.24000
C2607       C  0.90962433  0.88296340  0.72306827     0.40600
C2608       C  0.88488984  0.86020521  0.69666930    -0.26500
O2609       O  0.91325264  0.92108254  0.62099159    -0.58400
H2610       H  0.95579727  0.95232760  0.66817210     0.16200
O2611       O  0.90300970  0.86568691  0.75547283    -0.59800
H2612       H  0.86497014  0.83220896  0.70326123     0.14700
H2613       H  0.81011176  0.87182384  0.55384659     0.46500
H2614       H  0.92965923  0.91357280  0.60933859     0.41900
H2615       H  0.90204949  0.84159715  0.75236450     0.45300
H2616       H  0.90003388  0.81384268  0.63320203     0.36800
C2617       C  0.87060855  0.89823069  0.80706287    -0.27400
C2618       C  0.88428681  0.89153015  0.83824979     0.02200
C2619       C  0.92220458  0.90764931  0.84247641     0.30300
C2620       C  0.94553454  0.92734569  0.81501244    -0.19200
C2621       C  0.93388240  0.93315738  0.78114972    -0.28600
C2622       C  0.89361003  0.91807741  0.77910412     0.44300
C2623       C  0.85941688  0.86572302  0.86544494     0.05500
O2624       O  0.93731588  0.90448284  0.87387736    -0.57100
H2625       H  0.97328534  0.93848888  0.82253840     0.18400
O2626       O  0.87401381  0.91571616  0.74856599    -0.63800
H2627       H  0.84116546  0.88550938  0.80301797     0.16900
C2628       C  0.82958048  0.86849323  0.87897924     0.29100
C2629       C  0.80935517  0.84544664  0.90689805    -0.24700
C2630       C  0.81785041  0.81905093  0.92137740    -0.24000
C2631       C  0.84594523  0.81464446  0.90585856     0.40600
C2632       C  0.86611960  0.83767069  0.87819464    -0.26500
O2633       O  0.81929776  0.89256277  0.86418398    -0.58400
H2634       H  0.78666012  0.84817907  0.91703030     0.16200
O2635       O  0.85397571  0.78791810  0.91727355    -0.59800
H2636       H  0.88688272  0.83324843  0.86608065     0.14700
H2637       H  0.88883077  0.93620051  0.73272841     0.46500
H2638       H  0.81291117  0.90382249  0.88377095     0.41900
H2639       H  0.83880488  0.76642269  0.90222430     0.45300
H2640       H  0.93891986  0.92461858  0.88865393     0.36800
C2641       C  0.68532141  0.66786912  0.85490967    -0.27400
C2642       C  0.64767280  0.64404758  0.85922493     0.02200
C2643       C  0.63175165  0.64185829  0.89219844     0.30300
C2644       C  0.65299980  0.66451019  0.91972174    -0.19200
C2645       C  0.69043942  0.68852764  0.91518370    -0.28600
C2646       C  0.70680348  0.68966576  0.88282686     0.44300
C2647       C  0.62477054  0.62288569  0.82888761     0.05500
O2648       O  0.59548357  0.61754326  0.89779071    -0.57100
H2649       H  0.64041005  0.66281646  0.94486822     0.18400
O2650       O  0.74343731  0.71311353  0.87785156    -0.63800
H2651       H  0.69793356  0.67001116  0.82969513     0.16900
C2652       C  0.59634211  0.62847008  0.81634063     0.29100
C2653       C  0.57423231  0.60735694  0.78837932    -0.24700
C2654       C  0.57585953  0.57655012  0.77350752    -0.24000
C2655       C  0.61335315  0.58287440  0.77897598     0.40600
C2656       C  0.63423009  0.60123558  0.80882715    -0.26500
O2657       O  0.59086111  0.65574689  0.83002237    -0.58400
H2658       H  0.55539404  0.61624740  0.78068472     0.16200
O2659       O  0.63445255  0.58017759  0.75293348    -0.59800
H2660       H  0.66035492  0.60212604  0.81363581     0.14700
H2661       H  0.75587938  0.69856951  0.88392895     0.46500
H2662       H  0.56851912  0.64305575  0.84446949     0.41900
H2663       H  0.61834417  0.56344188  0.73485800     0.45300
H2664       H  0.59513512  0.59481489  0.90647467     0.36800
C2665       C  0.64868438  0.61845114  0.59662796    -0.27400
C2666       C  0.62386451  0.62813506  0.61137587     0.02200
C2667       C  0.62482038  0.66093982  0.60049751     0.30300
C2668       C  0.65081855  0.68392456  0.57621299    -0.19200
C2669       C  0.67645991  0.67495119  0.56206297    -0.28600
C2670       C  0.67457463  0.64130599  0.57191749     0.44300
C2671       C  0.60235591  0.60812931  0.64268114     0.05500
O2672       O  0.60246404  0.67232422  0.61562644    -0.57100
H2673       H  0.65149109  0.70956013  0.56934715     0.18400
O2674       O  0.69849664  0.63092058  0.55853727    -0.63800
H2675       H  0.64884451  0.59366461  0.60495719     0.16900
C2676       C  0.56417339  0.59162330  0.64379866     0.29100
C2677       C  0.54589218  0.57575947  0.67565134    -0.24700
C2678       C  0.56392984  0.57356395  0.70803278    -0.24000
C2679       C  0.60140450  0.60422422  0.70608003     0.40600
C2680       C  0.62090358  0.61402827  0.67448533    -0.26500
O2681       O  0.54433080  0.59117910  0.61437273    -0.58400
H2682       H  0.51771393  0.56849380  0.67351932     0.16200
O2683       O  0.61475748  0.63200248  0.73046200    -0.59800
H2684       H  0.65002618  0.63344375  0.67514401     0.14700
H2685       H  0.68621065  0.61689567  0.53699453     0.46500
H2686       H  0.53164392  0.56534502  0.60644295     0.41900
H2687       H  0.64157684  0.64136839  0.73338631     0.45300
H2688       H  0.58245354  0.66670558  0.59818536     0.36800
loop_ 
_geom_bond_atom_site_label_1 
_geom_bond_atom_site_label_2 
_geom_bond_distance 
_geom_bond_site_symmetry_2 
_ccdc_geom_bond_type 
O1           Ni9   1.930       .  S
O1           C11   1.285       .  A
O2         Ni345   1.929   1_554  S
O2           C12   1.285       .  A
O3           Ni9   1.910       .  S
O3           C13   1.278       .  A
O4         Ni345   1.916   1_554  S
O4           C14   1.281       .  A
O5          Ni10   1.929   1_554  S
O5           C14   1.284       .  A
O6         Ni346   1.921       .  S
O6           C13   1.282       .  A
O7          Ni10   1.898   1_554  S
O7           C12   1.278       .  A
O8         Ni346   1.904       .  S
O8           C11   1.279       .  A
Ni9         O338   1.931       .  S
Ni9         O340   1.920       .  S
Ni9        Ni346   2.385       .  S
Ni10        O342   1.923       .  S
Ni10        O344   1.904       .  S
Ni10       Ni345   2.385       .  S
C11         C278   1.489       .  S
C12         C317   1.485       .  S
C13         C293   1.466       .  S
C14         C245   1.492       .  S
O15        Ni359   1.920       .  S
O15          C25   1.282   1_455  A
O16         Ni23   1.921       .  S
O16          C26   1.283   1_455  A
O17        Ni359   1.904       .  S
O17          C27   1.278   1_455  A
O18         Ni23   1.897       .  S
O18          C28   1.278   1_455  A
O19         Ni24   1.931       .  S
O19        C1372   1.284       .  A
O20        Ni360   1.935       .  S
O20        C1371   1.286       .  A
O21         Ni24   1.919       .  S
O21        C1370   1.280       .  A
O22        Ni360   1.920       .  S
O22        C1369   1.282       .  A
Ni23        O351   1.924   1_554  S
Ni23        O353   1.905   1_554  S
Ni23      Ni1368   2.386   1_455  S
Ni24        O356   1.934   1_554  S
Ni24        O358   1.918   1_554  S
Ni24      Ni1367   2.386       .  S
C25        O1366   1.282       .  A
C25         C173   1.484       .  S
C26        O1365   1.280       .  A
C26         C230   1.478       .  S
C27        O1364   1.286       .  A
C27         C197   1.488       .  S
C28        O1363   1.284       .  A
C28         C158   1.477       .  S
O29        Ni373   1.913       .  S
O29         C711   1.280       .  A
O30         Ni37   1.916   1_554  S
O30         C712   1.282       .  A
O31        Ni373   1.916       .  S
O31         C713   1.281       .  A
O32         Ni37   1.915   1_554  S
O32         C714   1.281       .  A
O33         Ni38   1.925       .  S
O33          C42   1.283   1_545  A
O34        Ni374   1.930       .  S
O34          C41   1.285       .  A
O35         Ni38   1.925       .  S
O35          C40   1.283       .  A
O36        Ni374   1.910       .  S
O36          C39   1.279       .  A
Ni37        O365   1.910       .  S
Ni37        O367   1.917       .  S
Ni37       Ni710   2.387   1_556  S
Ni38        O370   1.921   1_554  S
Ni38        O372   1.908   1_554  S
Ni38       Ni709   2.387   1_544  S
C39         O701   1.280   1_545  A
C39          C77   1.462       .  S
C40         O702   1.283   1_545  A
C40         C806   1.492       .  S
C41         O703   1.281   1_545  A
C41         C782   1.491       .  S
C42         O704   1.281       .  A
C42          C53   1.482       .  S
C43          C46   1.850       .  S
C43        C1392   1.841   1_455  S
C43         C149   1.676       .  S
C43         C182   1.672       .  S
C44        C1389   1.840       .  S
C44         C719   1.844   1_545  S
C44         C206   1.716       .  S
C44         C221   1.657       .  S
C45        C1388   1.840       .  S
C45         C718   1.876       .  S
C45         C302   1.669       .  S
C45         C326   1.710       .  S
C46         C717   1.877       .  S
C46         C101   1.679       .  S
C46         C125   1.660       .  S
C47          C48   1.855       .  S
C47         C716   1.845       .  S
C47          C62   1.667       .  S
C47          C86   1.711       .  S
C48        C1387   1.841       .  S
C48         C254   1.713       .  S
C48         C269   1.658       .  S
C49          C54   1.398       .  A
C49         C722   1.408       .  A
C49          H59   1.082       .  S
C50          C55   1.496       .  S
C50          C51   1.410   1_565  A
C50         C721   1.408       .  A
C51          C52   1.406       .  A
C51          O56   1.369       .  S
C52          C53   1.407   1_545  A
C52          H57   1.084       .  S
C53         C726   1.407       .  A
C54         C725   1.409       .  A
C54          O58   1.372       .  S
C55          C60   1.382       .  A
C55         C736   1.395   1_565  A
O56          H72   0.991       .  S
O58          H69   0.992       .  S
C60          C61   1.386   1_565  A
C60          O65   1.377       .  S
C61         C734   1.440       .  A
C61          H66   1.055       .  S
C62          C63   1.411       .  A
C62         C733   1.441       .  A
C63          C64   1.442       .  A
C63          O67   1.351       .  S
C64         C727   1.396       .  A
C64          H68   1.083       .  S
O65          H70   0.992       .  S
O67          H71   0.993       .  S
C73          C78   1.399       .  A
C73         C746   1.405       .  A
C73          H83   1.083       .  S
C74          C79   1.479       .  S
C74          C75   1.418       .  A
C74         C745   1.404       .  A
C75          C76   1.393       .  A
C75          O80   1.376       .  S
C76         C749   1.398       .  A
C76          H81   1.084       .  S
C77          C78   1.406       .  A
C77         C748   1.397   1_545  A
C78          O82   1.372       .  S
C79          C84   1.385       .  A
C79         C760   1.376       .  A
O80          H96   0.989       .  S
O82          H93   0.992       .  S
C84          C85   1.401       .  A
C84          O89   1.374       .  S
C85          C86   1.448       .  A
C85          H90   1.060       .  S
C86         C759   1.448       .  A
C87          C88   1.394       .  A
C87         C758   1.453   1_545  A
C87          O91   1.341   1_545  S
C88         C751   1.376       .  A
C88          H92   1.084       .  S
O89          H94   0.992       .  S
O91          H95   0.949       .  S
C97         C102   1.399       .  A
C97         C770   1.382       .  A
C97         H107   1.085       .  S
C98         C103   1.488       .  S
C98          C99   1.392       .  A
C98         C769   1.382       .  A
C99         C100   1.409       .  A
C99         O104   1.372       .  S
C100        C773   1.461       .  A
C100        H105   1.073       .  S
C101        C102   1.442       .  A
C101        C772   1.462       .  A
C102        O106   1.343       .  S
C103        C108   1.408       .  A
C103        C784   1.403   1_545  A
O104        H120   0.992       .  S
O106        H117   0.965       .  S
C108        C109   1.405       .  A
C108        O113   1.370       .  S
C109        C782   1.408       .  A
C109        H114   1.083       .  S
C110        C713   1.488       .  S
C110        C111   1.411       .  A
C110        C781   1.409       .  A
C111        C112   1.399       .  A
C111        O115   1.372       .  S
C112        C775   1.404       .  A
C112        H116   1.084       .  S
O113        H118   0.992       .  S
O115        H119   0.992       .  S
C121        C126   1.405       .  A
C121        C794   1.387       .  A
C121        H131   1.081       .  S
C122        C127   1.483       .  S
C122        C123   1.393       .  A
C122        C793   1.387       .  A
C123        C124   1.402       .  A
C123        O128   1.372       .  S
C124        C125   1.433       .  A
C124        H129   1.048       .  S
C125        C798   1.433       .  A
C126        C797   1.434       .  A
C126        O130   1.356       .  S
C127        C132   1.407       .  A
C127        C808   1.403       .  A
O128        H144   0.992       .  S
O130        H141   0.994       .  S
C132        C133   1.398       .  A
C132        O137   1.370       .  S
C133        C134   1.405       .  A
C133        H138   1.083       .  S
C134        C712   1.487       .  S
C134        C807   1.414       .  A
C135        C136   1.404       .  A
C135        C806   1.415       .  A
C135        O139   1.371       .  S
C136        C799   1.405       .  A
C136        H140   1.084       .  S
O137        H142   0.991       .  S
O139        H143   0.992       .  S
C145        C146   1.383   1_455  A
C145        C150   1.397       .  A
C145        H155   1.085       .  S
C146        C151   1.482       .  S
C146       C1491   1.391   1_655  A
C147        C148   1.406       .  A
C147       C1490   1.391       .  A
C147        O152   1.371       .  S
C148       C1493   1.401       .  A
C148        H153   1.023       .  S
C149        C150   1.473       .  A
C149       C1492   1.401       .  A
C150        O154   1.374       .  S
C151        C156   1.409   1_655  A
C151       C1504   1.405       .  A
O152        H168   0.991       .  S
O154        H165   0.993       .  S
C156        C157   1.394       .  A
C156        O161   1.376       .  S
C157        C158   1.402   1_455  A
C157        H162   1.084       .  S
C158       C1503   1.410       .  A
C159        C160   1.407       .  A
C159       C1502   1.410       .  A
C159        O163   1.371       .  S
C160       C1495   1.405       .  A
C160        H164   1.083       .  S
O161        H166   0.992       .  S
O163        H167   0.992       .  S
C169        C174   1.401       .  A
C169       C1514   1.399       .  A
C169        H179   1.076       .  S
C170        C175   1.488       .  S
C170        C171   1.412   1_655  A
C170       C1513   1.399       .  A
C171        C172   1.401       .  A
C171        O176   1.372       .  S
C172        C173   1.405   1_455  A
C172        H177   1.083       .  S
C173       C1518   1.411       .  A
C174       C1517   1.411       .  A
C174        O178   1.371       .  S
C175        C184   1.386   1_655  A
C175       C1524   1.395       .  A
O176        H192   0.992       .  S
O178        H189   0.992       .  S
C180        C181   1.410       .  A
C180       C1519   1.395       .  A
C180        O185   1.371       .  S
C181       C1526   1.424       .  A
C181        H186   1.046       .  S
C182        C183   1.456       .  A
C182       C1525   1.424   1_455  A
C183        C184   1.404       .  A
C183        O187   1.364       .  S
C184        H188   1.084       .  S
O185        H190   0.992       .  S
O187        H191   0.993       .  S
C193        C198   1.398       .  A
C193       C1538   1.399   1_455  A
C193        H203   1.083       .  S
C194        C199   1.484       .  S
C194        C195   1.409       .  A
C194       C1537   1.399       .  A
C195        C196   1.403       .  A
C195        O200   1.371       .  S
C196       C1541   1.405       .  A
C196        H201   1.083       .  S
C197        C198   1.416   1_655  A
C197       C1540   1.405       .  A
C198        O202   1.371       .  S
C199        C208   1.386       .  A
C199       C1548   1.381       .  A
O200        H216   0.992       .  S
O202        H213   0.992       .  S
C204        C205   1.391       .  A
C204       C1543   1.381       .  A
C204        O209   1.375       .  S
C205       C1550   1.460   1_655  A
C205        H210   1.067       .  S
C206        C207   1.457       .  A
C206       C1549   1.460       .  A
C207        C208   1.422       .  A
C207        O211   1.349       .  S
C208        H212   1.084       .  S
O209        H214   0.992       .  S
O211        H215   0.992       .  S
C217        C222   1.411       .  A
C217       C1562   1.395       .  A
C217        H227   1.083       .  S
C218        C223   1.501       .  S
C218        C219   1.400   1_655  A
C218       C1561   1.395       .  A
C219        C220   1.399       .  A
C219        O224   1.371       .  S
C220       C1565   1.438   1_455  A
C220        H225   1.055       .  S
C221        C222   1.447       .  A
C221       C1564   1.438       .  A
C222        O226   1.373       .  S
C223        C232   1.409   1_655  A
C223       C1572   1.417       .  A
O224        H240   0.990       .  S
O226        H237   0.993       .  S
C228        C229   1.402       .  A
C228       C1567   1.417       .  A
C228        O233   1.371       .  S
C229       C1574   1.402       .  A
C229        H234   1.084       .  S
C230        C231   1.407   1_655  A
C230       C1573   1.402       .  A
C231        C232   1.399       .  A
C231        O235   1.372       .  S
C232        H236   1.082       .  S
O233        H238   0.990       .  S
O235        H239   0.992       .  S
C241        C242   1.403       .  A
C241        C246   1.401       .  A
C241        H251   1.080       .  S
C242        C247   1.489       .  S
C242        C243   1.407       .  A
C243        C244   1.403       .  A
C243        O248   1.372       .  S
C244        C245   1.411       .  A
C244        H249   1.083       .  S
C245        C246   1.412       .  A
C246        O250   1.371       .  S
C247        C252   1.379       .  A
C247        C256   1.381       .  A
O248        H264   0.991       .  S
O250        H261   0.992       .  S
C252        C253   1.395       .  A
C252        O257   1.375       .  S
C253        C254   1.422       .  A
C253        H258   1.019       .  S
C254        C255   1.496       .  A
C255        C256   1.418       .  A
C255        O259   1.380       .  S
C256        H260   1.084       .  S
O257        H262   0.992       .  S
O259        H263   0.994       .  S
C265        C266   1.387       .  A
C265        C270   1.407       .  A
C265        H275   1.084       .  S
C266        C271   1.491       .  S
C266        C267   1.390       .  A
C267        C268   1.395       .  A
C267        O272   1.373       .  S
C268        C269   1.426       .  A
C268        H273   1.050       .  S
C269        C270   1.480       .  A
C270        O274   1.383       .  S
C271        C276   1.407       .  A
C271        C280   1.405       .  A
O272        H288   0.992       .  S
O274        H285   0.981       .  S
C276        C277   1.405       .  A
C276        O281   1.376       .  S
C277        C278   1.410       .  A
C277        H282   1.083       .  S
C278        C279   1.410       .  A
C279        C280   1.400       .  A
C279        O283   1.371       .  S
C280        H284   1.080       .  S
O281        H286   0.992       .  S
O283        H287   0.992       .  S
C289        C290   1.404       .  A
C289        C294   1.400       .  A
C289        H299   1.083       .  S
C290        C295   1.481       .  S
C290        C291   1.410       .  A
C291        C292   1.399       .  A
C291        O296   1.371       .  S
C292        C293   1.399       .  A
C292        H297   1.084       .  S
C293        C294   1.406       .  A
C294        O298   1.372       .  S
C295        C300   1.388       .  A
C295        C304   1.388       .  A
O296        H312   0.992       .  S
O298        H309   0.992       .  S
C300        C301   1.400       .  A
C300        O305   1.374       .  S
C301        C302   1.440       .  A
C301        H306   1.052       .  S
C302        C303   1.463       .  A
C303        C304   1.405       .  A
C303        O307   1.378       .  S
C304        H308   1.082       .  S
O305        H310   0.991       .  S
O307        H311   0.977       .  S
C313        C314   1.405       .  A
C313        C318   1.400       .  A
C313        H323   1.080       .  S
C314        C319   1.481       .  S
C314        C315   1.406       .  A
C315        C316   1.396       .  A
C315        O320   1.371       .  S
C316        C317   1.408       .  A
C316        H321   1.083       .  S
C317        C318   1.410       .  A
C318        O322   1.371       .  S
C319        C324   1.394       .  A
C319        C328   1.380       .  A
O320        H336   0.992       .  S
O322        H333   0.992       .  S
C324        C325   1.414       .  A
C324        O329   1.372       .  S
C325        C326   1.453       .  A
C325        H330   1.061       .  S
C326        C327   1.466       .  A
C327        C328   1.401       .  A
C327        O331   1.378       .  S
C328        H332   1.085       .  S
O329        H334   0.992       .  S
O331        H335   0.993       .  S
O337       Ni345   1.929       .  S
O337        C347   1.285       .  A
O338        C348   1.285       .  A
O339       Ni345   1.909       .  S
O339        C349   1.278       .  A
O340        C350   1.281       .  A
O341       Ni346   1.926       .  S
O341        C350   1.284       .  A
O342        C349   1.282       .  A
O343       Ni346   1.900       .  S
O343        C348   1.278       .  A
O344        C347   1.279       .  A
C347        C614   1.489       .  S
C348        C653   1.487       .  S
C349        C629   1.468       .  S
C350        C581   1.492       .  S
O351        C361   1.283   1_455  A
O352       Ni359   1.918       .  S
O352        C362   1.282   1_455  A
O353        C363   1.278   1_455  A
O354       Ni359   1.898       .  S
O354        C364   1.279   1_455  A
O355       Ni360   1.934       .  S
O355       C1708   1.284       .  A
O356       C1707   1.286       .  A
O357       Ni360   1.920       .  S
O357       C1706   1.281       .  A
O358       C1705   1.281       .  A
Ni359     Ni1704   2.386   1_455  S
Ni360     Ni1703   2.386       .  S
C361       O1702   1.281       .  A
C361        C509   1.485       .  S
C362       O1701   1.281       .  A
C362        C566   1.478       .  S
C363       O1700   1.286       .  A
C363        C533   1.490       .  S
C364       O1699   1.284       .  A
C364        C494   1.479       .  S
O365       C1047   1.280       .  A
O366       Ni373   1.923       .  S
O366       C1048   1.283       .  A
O367       C1049   1.282       .  A
O368       Ni373   1.915       .  S
O368       C1050   1.281       .  A
O369       Ni374   1.933       .  S
O369        C378   1.285       .  A
O370        C377   1.283       .  A
O371       Ni374   1.928       .  S
O371        C376   1.283       .  A
O372        C375   1.278       .  A
Ni373     Ni1046   2.386       .  S
Ni374     Ni1045   2.386   1_545  S
C375       O1037   1.280   1_545  A
C375        C413   1.461       .  S
C376       O1038   1.282   1_545  A
C376       C1142   1.491       .  S
C377       O1039   1.281   1_545  A
C377       C1118   1.485       .  S
C378       O1040   1.280   1_545  A
C378        C389   1.486   1_545  S
C379        C382   1.851       .  S
C379       C1728   1.845   1_455  S
C379        C485   1.675       .  S
C379        C518   1.673       .  S
C380       C1725   1.838       .  S
C380       C1055   1.845   1_545  S
C380        C542   1.717       .  S
C380        C557   1.659       .  S
C381       C1724   1.838       .  S
C381       C1054   1.876       .  S
C381        C638   1.669       .  S
C381        C662   1.711       .  S
C382       C1053   1.879       .  S
C382        C437   1.666       .  S
C382        C461   1.667       .  S
C383       C1052   1.841       .  S
C383        C384   1.853       .  S
C383        C398   1.665       .  S
C383        C422   1.722       .  S
C384       C1723   1.845       .  S
C384        C590   1.716       .  S
C384        C605   1.654       .  S
C385       C1058   1.408       .  A
C385        C390   1.398       .  A
C385        H395   1.082       .  S
C386        C391   1.496       .  S
C386       C1057   1.406       .  A
C386        C387   1.410   1_565  A
C387        C388   1.408       .  A
C387        O392   1.370       .  S
C388        C389   1.409   1_545  A
C388        H393   1.083       .  S
C389       C1062   1.409       .  A
C390       C1061   1.408       .  A
C390        O394   1.372       .  S
C391        C396   1.383       .  A
C391       C1072   1.395   1_565  A
O392        H408   0.991       .  S
O394        H405   0.992       .  S
C396        C397   1.386   1_565  A
C396        O401   1.377   1_565  S
C397       C1070   1.440       .  A
C397        H402   1.054       .  S
C398       C1069   1.440       .  A
C398        C399   1.409       .  A
C399        C400   1.444       .  A
C399        O403   1.352       .  S
C400       C1063   1.397       .  A
C400        H404   1.083       .  S
O401        H406   0.992   1_545  S
O403        H407   0.992       .  S
C409       C1082   1.405       .  A
C409        C414   1.397       .  A
C409        H419   1.083       .  S
C410        C415   1.480       .  S
C410       C1081   1.404       .  A
C410        C411   1.417       .  A
C411        C412   1.392       .  A
C411        O416   1.375       .  S
C412       C1085   1.397       .  A
C412        H417   1.084       .  S
C413       C1084   1.397   1_545  A
C413        C414   1.405       .  A
C414        O418   1.372       .  S
C415        C420   1.383       .  A
C415       C1096   1.376       .  A
O416        H432   0.989       .  S
O418        H429   0.992       .  S
C420        C421   1.403       .  A
C420        O425   1.373       .  S
C421        C422   1.450       .  A
C421        H426   1.059       .  S
C422       C1095   1.454       .  A
C423       C1094   1.451   1_545  A
C423        C424   1.394       .  A
C423        O427   1.340   1_545  S
C424       C1087   1.377       .  A
C424        H428   1.084       .  S
O425        H430   0.992       .  S
O427        H431   0.957       .  S
C433       C1106   1.383       .  A
C433        C438   1.399       .  A
C433        H443   1.085       .  S
C434        C439   1.484       .  S
C434       C1105   1.381       .  A
C434        C435   1.390       .  A
C435        C436   1.406       .  A
C435        O440   1.373       .  S
C436       C1109   1.461       .  A
C436        H441   1.072       .  S
C437       C1108   1.460       .  A
C437        C438   1.432       .  A
C438        O442   1.341       .  S
C439        C444   1.406       .  A
C439       C1120   1.403   1_545  A
O440        H456   0.992       .  S
O442        H453   0.971       .  S
C444        C445   1.403       .  A
C444        O449   1.371       .  S
C445       C1118   1.408       .  A
C445        H450   1.083       .  S
C446       C1049   1.489       .  S
C446       C1117   1.409       .  A
C446        C447   1.412       .  A
C447        C448   1.400       .  A
C447        O451   1.372       .  S
C448       C1111   1.402       .  A
C448        H452   1.083       .  S
O449        H454   0.992       .  S
O451        H455   0.992       .  S
C457       C1130   1.387       .  A
C457        C462   1.404       .  A
C457        H467   1.080       .  S
C458        C463   1.498       .  S
C458       C1129   1.389       .  A
C458        C459   1.398       .  A
C459        C460   1.409       .  A
C459        O464   1.373       .  S
C460        C461   1.436       .  A
C460        H465   1.051       .  S
C461       C1134   1.432       .  A
C462       C1133   1.431       .  A
C462        O466   1.358       .  S
C463        C468   1.410       .  A
C463       C1144   1.406       .  A
O464        H480   0.992       .  S
O466        H477   0.994       .  S
C468        C469   1.402       .  A
C468        O473   1.369       .  S
C469        C470   1.407       .  A
C469        H474   1.083       .  S
C470       C1048   1.496       .  S
C470       C1143   1.415       .  A
C471       C1142   1.415       .  A
C471        C472   1.405       .  A
C471        O475   1.371       .  S
C472       C1135   1.405       .  A
C472        H476   1.084       .  S
O473        H478   0.991       .  S
O475        H479   0.992       .  S
C481        C482   1.384   1_455  A
C481        C486   1.399       .  A
C481        H491   1.085   1_455  S
C482        C487   1.484       .  S
C482       C1827   1.391   1_655  A
C483       C1826   1.391       .  A
C483        C484   1.406       .  A
C483        O488   1.371       .  S
C484       C1829   1.404       .  A
C484        H489   1.025       .  S
C485       C1828   1.404       .  A
C485        C486   1.471       .  A
C486        O490   1.373       .  S
C487        C492   1.408   1_655  A
C487       C1840   1.406       .  A
O488        H504   0.991       .  S
O490        H501   0.993       .  S
C492        C493   1.395       .  A
C492        O497   1.376       .  S
C493        C494   1.402   1_455  A
C493        H498   1.084       .  S
C494       C1839   1.410       .  A
C495       C1838   1.410       .  A
C495        C496   1.408       .  A
C495        O499   1.371       .  S
C496       C1831   1.406       .  A
C496        H500   1.083       .  S
O497        H502   0.992       .  S
O499        H503   0.992       .  S
C505       C1850   1.400       .  A
C505        C510   1.402       .  A
C505        H515   1.077       .  S
C506        C511   1.491       .  S
C506       C1849   1.400       .  A
C506        C507   1.412   1_655  A
C507        C508   1.402       .  A
C507        O512   1.372       .  S
C508        C509   1.404   1_455  A
C508        H513   1.083       .  S
C509       C1854   1.412       .  A
C510       C1853   1.412       .  A
C510        O514   1.372       .  S
C511       C1860   1.395       .  A
C511        C520   1.386   1_655  A
O512        H528   0.992       .  S
O514        H525   0.992       .  S
C516       C1855   1.395       .  A
C516        C517   1.411       .  A
C516        O521   1.371       .  S
C517       C1862   1.423       .  A
C517        H522   1.042       .  S
C518       C1861   1.423   1_455  A
C518        C519   1.458       .  A
C519        C520   1.407       .  A
C519        O523   1.363       .  S
C520        H524   1.084       .  S
O521        H526   0.992       .  S
O523        H527   0.993       .  S
C529       C1874   1.400   1_455  A
C529        C534   1.398       .  A
C529        H539   1.083       .  S
C530        C535   1.485       .  S
C530       C1873   1.400       .  A
C530        C531   1.410       .  A
C531        C532   1.405       .  A
C531        O536   1.372       .  S
C532       C1877   1.406       .  A
C532        H537   1.083       .  S
C533       C1876   1.406       .  A
C533        C534   1.416   1_655  A
C534        O538   1.371       .  S
C535       C1884   1.381       .  A
C535        C544   1.387       .  A
O536        H552   0.992       .  S
O538        H549   0.992       .  S
C540       C1879   1.381       .  A
C540        C541   1.392       .  A
C540        O545   1.374       .  S
C541       C1886   1.458   1_655  A
C541        H546   1.068       .  S
C542       C1885   1.458       .  A
C542        C543   1.457       .  A
C543        C544   1.422       .  A
C543        O547   1.350       .  S
C544        H548   1.084       .  S
O545        H550   0.992       .  S
O547        H551   0.992       .  S
C553       C1898   1.396       .  A
C553        C558   1.412       .  A
C553        H563   1.083       .  S
C554        C559   1.503       .  S
C554       C1897   1.396       .  A
C554        C555   1.401   1_655  A
C555        C556   1.400       .  A
C555        O560   1.372       .  S
C556       C1901   1.438   1_455  A
C556        H561   1.055       .  S
C557       C1900   1.438       .  A
C557        C558   1.447       .  A
C558        O562   1.373       .  S
C559       C1908   1.418       .  A
C559        C568   1.409   1_655  A
O560        H576   0.990       .  S
O562        H573   0.994       .  S
C564       C1903   1.418       .  A
C564        C565   1.402       .  A
C564        O569   1.371       .  S
C565       C1910   1.402       .  A
C565        H570   1.084       .  S
C566       C1909   1.402       .  A
C566        C567   1.407   1_655  A
C567        C568   1.399       .  A
C567        O571   1.372       .  S
C568        H572   1.082       .  S
O569        H574   0.990       .  S
O571        H575   0.992       .  S
C577        C578   1.403       .  A
C577        C582   1.400       .  A
C577        H587   1.081       .  S
C578        C583   1.491       .  S
C578        C579   1.408       .  A
C579        C580   1.405       .  A
C579        O584   1.372       .  S
C580        C581   1.410       .  A
C580        H585   1.083       .  S
C581        C582   1.412       .  A
C582        O586   1.371       .  S
C583        C588   1.379       .  A
C583        C592   1.382       .  A
O584        H600   0.990       .  S
O586        H597   0.992       .  S
C588        C589   1.395       .  A
C588        O593   1.375       .  S
C589        C590   1.421       .  A
C589        H594   1.018       .  S
C590        C591   1.498       .  A
C591        C592   1.420       .  A
C591        O595   1.381       .  S
C592        H596   1.084       .  S
O593        H598   0.991       .  S
O595        H599   0.994       .  S
C601        C602   1.388       .  A
C601        C606   1.406       .  A
C601        H611   1.083       .  S
C602        C607   1.494       .  S
C602        C603   1.392       .  A
C603        C604   1.396       .  A
C603        O608   1.372       .  S
C604        C605   1.423       .  A
C604        H609   1.051       .  S
C605        C606   1.479       .  A
C606        O610   1.383       .  S
C607        C612   1.410       .  A
C607        C616   1.405       .  A
O608        H624   0.992       .  S
O610        H621   0.980       .  S
C612        C613   1.405       .  A
C612        O617   1.376       .  S
C613        C614   1.410       .  A
C613        H618   1.083       .  S
C614        C615   1.409       .  A
C615        C616   1.399       .  A
C615        O619   1.371       .  S
C616        H620   1.080       .  S
O617        H622   0.992       .  S
O619        H623   0.992       .  S
C625        C626   1.404       .  A
C625        C630   1.401       .  A
C625        H635   1.083       .  S
C626        C631   1.482       .  S
C626        C627   1.410       .  A
C627        C628   1.399       .  A
C627        O632   1.371       .  S
C628        C629   1.400       .  A
C628        H633   1.084       .  S
C629        C630   1.407       .  A
C630        O634   1.372       .  S
C631        C636   1.388       .  A
C631        C640   1.388       .  A
O632        H648   0.992       .  S
O634        H645   0.992       .  S
C636        C637   1.401       .  A
C636        O641   1.374       .  S
C637        C638   1.441       .  A
C637        H642   1.053       .  S
C638        C639   1.462       .  A
C639        C640   1.405       .  A
C639        O643   1.377       .  S
C640        H644   1.082       .  S
O641        H646   0.991       .  S
O643        H647   0.977       .  S
C649        C650   1.406       .  A
C649        C654   1.401       .  A
C649        H659   1.080       .  S
C650        C655   1.486       .  S
C650        C651   1.407       .  A
C651        C652   1.399       .  A
C651        O656   1.371       .  S
C652        C653   1.409       .  A
C652        H657   1.083       .  S
C653        C654   1.410       .  A
C654        O658   1.372       .  S
C655        C660   1.395       .  A
C655        C664   1.381       .  A
O656        H672   0.992       .  S
O658        H669   0.992       .  S
C660        C661   1.415       .  A
C660        O665   1.372       .  S
C661        C662   1.452       .  A
C661        H666   1.060       .  S
C662        C663   1.468       .  A
C663        C664   1.402       .  A
C663        O667   1.378       .  S
C664        H668   1.085       .  S
O665        H670   0.992       .  S
O667        H671   0.994       .  S
O673       Ni681   1.931       .  S
O673        C683   1.285       .  A
O674      Ni1017   1.929   1_554  S
O674        C684   1.285       .  A
O675       Ni681   1.912       .  S
O675        C685   1.278       .  A
O676      Ni1017   1.917   1_554  S
O676        C686   1.281       .  A
O677       Ni682   1.933   1_554  S
O677        C686   1.285       .  A
O678      Ni1018   1.924       .  S
O678        C685   1.282       .  A
O679       Ni682   1.903   1_554  S
O679        C684   1.279       .  A
O680      Ni1018   1.905       .  S
O680        C683   1.279       .  A
Ni681      O1010   1.934       .  S
Ni681      O1012   1.919       .  S
Ni681     Ni1018   2.385       .  S
Ni682      O1014   1.924       .  S
Ni682      O1016   1.908       .  S
Ni682     Ni1017   2.385       .  S
C683        C950   1.490       .  S
C684        C989   1.488       .  S
C685        C965   1.468       .  S
C686        C917   1.496       .  S
O687      Ni1031   1.927       .  S
O687        C697   1.284   1_455  A
O688       Ni695   1.922       .  S
O688        C698   1.283   1_455  A
O689      Ni1031   1.904       .  S
O689        C699   1.278   1_455  A
O690       Ni695   1.896       .  S
O690        C700   1.278   1_455  A
O691       Ni696   1.933       .  S
O691       C2044   1.284       .  A
O692      Ni1032   1.931       .  S
O692       C2043   1.285       .  A
O693       Ni696   1.916       .  S
O693       C2042   1.280       .  A
O694      Ni1032   1.915       .  S
O694       C2041   1.280       .  A
Ni695      O1023   1.924   1_554  S
Ni695      O1025   1.904   1_554  S
Ni695     Ni2040   2.386   1_455  S
Ni696      O1028   1.932   1_554  S
Ni696      O1030   1.915   1_554  S
Ni696     Ni2039   2.386       .  S
C697       O2038   1.280       .  A
C697        C845   1.485       .  S
C698       O2037   1.280       .  A
C698        C902   1.478       .  S
C699       O2036   1.285       .  A
C699        C869   1.489       .  S
C700       O2035   1.284       .  A
C700        C830   1.476       .  S
O701      Ni1045   1.910       .  S
O702       Ni709   1.919   1_554  S
O703      Ni1045   1.916       .  S
O704       Ni709   1.913   1_554  S
O705       Ni710   1.927       .  S
O705        C714   1.284       .  A
O706      Ni1046   1.927       .  S
O706        C713   1.283       .  A
O707       Ni710   1.925       .  S
O707        C712   1.282       .  A
O708      Ni1046   1.908       .  S
O708        C711   1.278       .  A
Ni709      O1037   1.913       .  S
Ni709      O1039   1.916       .  S
Ni710      O1042   1.926   1_554  S
Ni710      O1044   1.908   1_554  S
C711        C749   1.460       .  S
C714        C725   1.485       .  S
C715        C718   1.851   1_565  S
C715       C2064   1.844   1_455  S
C715        C821   1.673       .  S
C715        C854   1.671       .  S
C716       C2061   1.837       .  S
C716        C878   1.717       .  S
C716        C893   1.657       .  S
C717       C2060   1.837       .  S
C717        C974   1.670       .  S
C717        C998   1.711       .  S
C718        C773   1.672       .  S
C718        C797   1.663       .  S
C719        C720   1.854       .  S
C719        C734   1.665   1_565  S
C719        C758   1.720       .  S
C720       C2059   1.844       .  S
C720        C926   1.719       .  S
C720        C941   1.656       .  S
C721        C726   1.396       .  A
C721        H731   1.082       .  S
C722        C727   1.497       .  S
C722        C723   1.409       .  A
C723        C724   1.406       .  A
C723        O728   1.369       .  S
C724        C725   1.408       .  A
C724        H729   1.083       .  S
C726        O730   1.372       .  S
C727        C732   1.382       .  A
O728        H744   0.992       .  S
O730        H741   0.992       .  S
C732        C733   1.387       .  A
C732        O737   1.377       .  S
C733        H738   1.055       .  S
C734        C735   1.409       .  A
C735        C736   1.442       .  A
C735        O739   1.350       .  S
C736        H740   1.083       .  S
O737        H742   0.992       .  S
O739        H743   0.992       .  S
C745        C750   1.397       .  A
C745        H755   1.083       .  S
C746        C751   1.480       .  S
C746        C747   1.417   1_545  A
C747        C748   1.392       .  A
C747        O752   1.376       .  S
C748        H753   1.084       .  S
C749        C750   1.404       .  A
C750        O754   1.372       .  S
C751        C756   1.383   1_545  A
O752        H768   0.989       .  S
O754        H765   0.992       .  S
C756        C757   1.402       .  A
C756        O761   1.373       .  S
C757        C758   1.449       .  A
C757        H762   1.059       .  S
C759        C760   1.392       .  A
C759        O763   1.340       .  S
C760        H764   1.083       .  S
O761        H766   0.992   1_565  S
O763        H767   0.961       .  S
C769        C774   1.400       .  A
C769        H779   1.085       .  S
C770        C775   1.487       .  S
C770        C771   1.391       .  A
C771        C772   1.408       .  A
C771        O776   1.373       .  S
C772        H777   1.072       .  S
C773        C774   1.435       .  A
C774        O778   1.340   1_545  S
C775        C780   1.408       .  A
O776        H792   0.992       .  S
O778        H789   0.967       .  S
C780        C781   1.406       .  A
C780        O785   1.371       .  S
C781        H786   1.083       .  S
C782        C783   1.414   1_545  A
C783        C784   1.401       .  A
C783        O787   1.372       .  S
C784        H788   1.084       .  S
O785        H790   0.992       .  S
O787        H791   0.992       .  S
C793        C798   1.406       .  A
C793        H803   1.081       .  S
C794        C799   1.491       .  S
C794        C795   1.396   1_545  A
C795        C796   1.406       .  A
C795        O800   1.373       .  S
C796        C797   1.433   1_565  A
C796        H801   1.050       .  S
C798        O802   1.358       .  S
C799        C804   1.409   1_545  A
O800        H816   0.992       .  S
O802        H813   0.994       .  S
C804        C805   1.399       .  A
C804        O809   1.369       .  S
C805        C806   1.406   1_565  A
C805        H810   1.083       .  S
C807        C808   1.404       .  A
C807        O811   1.371       .  S
C808        H812   1.084       .  S
O809        H814   0.992       .  S
O811        H815   0.992       .  S
C817        C818   1.383       .  A
C817        C822   1.397       .  A
C817        H827   1.084       .  S
C818        C823   1.483   1_455  S
C818       C2163   1.391       .  A
C819       C2162   1.391       .  A
C819        C820   1.404       .  A
C819        O824   1.372       .  S
C820       C2165   1.400       .  A
C820        H825   1.023       .  S
C821       C2164   1.400       .  A
C821        C822   1.471       .  A
C822        O826   1.373       .  S
C823        C828   1.409   1_655  A
C823       C2176   1.406       .  A
O824        H840   0.992       .  S
O826        H837   0.993       .  S
C828        C829   1.394       .  A
C828        O833   1.377       .  S
C829        C830   1.402   1_455  A
C829        H834   1.084       .  S
C830       C2175   1.409       .  A
C831       C2174   1.409       .  A
C831        C832   1.407       .  A
C831        O835   1.371       .  S
C832       C2167   1.406       .  A
C832        H836   1.083       .  S
O833        H838   0.992       .  S
O835        H839   0.992       .  S
C841       C2186   1.399       .  A
C841        C846   1.401       .  A
C841        H851   1.076       .  S
C842        C847   1.489       .  S
C842       C2185   1.399       .  A
C842        C843   1.413   1_655  A
C843        C844   1.402       .  A
C843        O848   1.372       .  S
C844        C845   1.404   1_455  A
C844        H849   1.083       .  S
C845       C2190   1.413       .  A
C846       C2189   1.413       .  A
C846        O850   1.372       .  S
C847       C2196   1.395       .  A
C847        C856   1.386   1_655  A
O848        H864   0.992       .  S
O850        H861   0.992       .  S
C852       C2191   1.395       .  A
C852        C853   1.410       .  A
C852        O857   1.371       .  S
C853       C2198   1.424       .  A
C853        H858   1.044       .  S
C854       C2197   1.424   1_455  A
C854        C855   1.457       .  A
C855        C856   1.404       .  A
C855        O859   1.363       .  S
C856        H860   1.084       .  S
O857        H862   0.992       .  S
O859        H863   0.993       .  S
C865       C2210   1.399   1_455  A
C865        C870   1.398       .  A
C865        H875   1.083       .  S
C866        C871   1.482       .  S
C866       C2209   1.399       .  A
C866        C867   1.408       .  A
C867        C868   1.403       .  A
C867        O872   1.371       .  S
C868       C2213   1.406       .  A
C868        H873   1.083       .  S
C869       C2212   1.406       .  A
C869        C870   1.417   1_655  A
C870        O874   1.372       .  S
C871       C2220   1.381       .  A
C871        C880   1.385       .  A
O872        H888   0.992       .  S
O874        H885   0.992       .  S
C876       C2215   1.381       .  A
C876        C877   1.392       .  A
C876        O881   1.374       .  S
C877       C2222   1.458   1_655  A
C877        H882   1.067       .  S
C878       C2221   1.458       .  A
C878        C879   1.457       .  A
C879        C880   1.420       .  A
C879        O883   1.347       .  S
C880        H884   1.084       .  S
O881        H886   0.992       .  S
O883        H887   0.992       .  S
C889       C2234   1.396       .  A
C889        C894   1.412       .  A
C889        H899   1.083       .  S
C890        C895   1.501       .  S
C890       C2233   1.396       .  A
C890        C891   1.399   1_655  A
C891        C892   1.398       .  A
C891        O896   1.371       .  S
C892       C2237   1.437   1_455  A
C892        H897   1.055       .  S
C893       C2236   1.437       .  A
C893        C894   1.447       .  A
C894        O898   1.373       .  S
C895       C2244   1.416       .  A
C895        C904   1.410   1_655  A
O896        H912   0.989       .  S
O898        H909   0.994       .  S
C900       C2239   1.416       .  A
C900        C901   1.401       .  A
C900        O905   1.371       .  S
C901       C2246   1.402       .  A
C901        H906   1.084       .  S
C902       C2245   1.402       .  A
C902        C903   1.407   1_655  A
C903        C904   1.400       .  A
C903        O907   1.372       .  S
C904        H908   1.082       .  S
O905        H910   0.990       .  S
O907        H911   0.992       .  S
C913        C914   1.404       .  A
C913        C918   1.403       .  A
C913        H923   1.080       .  S
C914        C919   1.492       .  S
C914        C915   1.407       .  A
C915        C916   1.404       .  A
C915        O920   1.371       .  S
C916        C917   1.411       .  A
C916        H921   1.083       .  S
C917        C918   1.413       .  A
C918        O922   1.372       .  S
C919        C924   1.378       .  A
C919        C928   1.383       .  A
O920        H936   0.990       .  S
O922        H933   0.992       .  S
C924        C925   1.396       .  A
C924        O929   1.375       .  S
C925        C926   1.423       .  A
C925        H930   1.019       .  S
C926        C927   1.498       .  A
C927        C928   1.422       .  A
C927        O931   1.380       .  S
C928        H932   1.084       .  S
O929        H934   0.991       .  S
O931        H935   0.994       .  S
C937        C938   1.388       .  A
C937        C942   1.406       .  A
C937        H947   1.083       .  S
C938        C943   1.494       .  S
C938        C939   1.392       .  A
C939        C940   1.397       .  A
C939        O944   1.373       .  S
C940        C941   1.425       .  A
C940        H945   1.050       .  S
C941        C942   1.479       .  A
C942        O946   1.382       .  S
C943        C948   1.409       .  A
C943        C952   1.405       .  A
O944        H960   0.992       .  S
O946        H957   0.980       .  S
C948        C949   1.406       .  A
C948        O953   1.376       .  S
C949        C950   1.410       .  A
C949        H954   1.083       .  S
C950        C951   1.409       .  A
C951        C952   1.400       .  A
C951        O955   1.371       .  S
C952        H956   1.079       .  S
O953        H958   0.992       .  S
O955        H959   0.992       .  S
C961        C962   1.403       .  A
C961        C966   1.401       .  A
C961        H971   1.084       .  S
C962        C967   1.480       .  S
C962        C963   1.410       .  A
C963        C964   1.399       .  A
C963        O968   1.371       .  S
C964        C965   1.400       .  A
C964        H969   1.084       .  S
C965        C966   1.407       .  A
C966        O970   1.372       .  S
C967        C972   1.387       .  A
C967        C976   1.387       .  A
O968        H984   0.992       .  S
O970        H981   0.991       .  S
C972        C973   1.401       .  A
C972        O977   1.374       .  S
C973        C974   1.443       .  A
C973        H978   1.053       .  S
C974        C975   1.463       .  A
C975        C976   1.405       .  A
C975        O979   1.377       .  S
C976        H980   1.083       .  S
O977        H982   0.991       .  S
O979        H983   0.976       .  S
C985        C986   1.404       .  A
C985        C990   1.401       .  A
C985        H995   1.081       .  S
C986        C991   1.484       .  S
C986        C987   1.407       .  A
C987        C988   1.399       .  A
C987        O992   1.370       .  S
C988        C989   1.408       .  A
C988        H993   1.083       .  S
C989        C990   1.411       .  A
C990        O994   1.371       .  S
C991        C996   1.394       .  A
C991       C1000   1.381       .  A
O992       H1008   0.992       .  S
O994       H1005   0.992       .  S
C996        C997   1.415       .  A
C996       O1001   1.372       .  S
C997        C998   1.454       .  A
C997       H1002   1.060       .  S
C998        C999   1.466       .  A
C999       C1000   1.402       .  A
C999       O1003   1.378       .  S
C1000      H1004   1.085       .  S
O1001      H1006   0.992       .  S
O1003      H1007   0.993       .  S
O1009     Ni1017   1.928       .  S
O1009      C1019   1.285       .  A
O1010      C1020   1.285       .  A
O1011     Ni1017   1.907       .  S
O1011      C1021   1.277       .  A
O1012      C1022   1.281       .  A
O1013     Ni1018   1.929       .  S
O1013      C1022   1.284       .  A
O1014      C1021   1.282       .  A
O1015     Ni1018   1.901       .  S
O1015      C1020   1.278       .  A
O1016      C1019   1.279       .  A
C1019      C1286   1.490       .  S
C1020      C1325   1.488       .  S
C1021      C1301   1.466       .  S
C1022      C1253   1.493       .  S
O1023      C1033   1.283   1_455  A
O1024     Ni1031   1.924       .  S
O1024      C1034   1.283   1_455  A
O1025      C1035   1.278   1_455  A
O1026     Ni1031   1.897       .  S
O1026      C1036   1.278   1_455  A
O1027     Ni1032   1.930       .  S
O1027      C2380   1.284       .  A
O1028      C2379   1.285       .  A
O1029     Ni1032   1.915       .  S
O1029      C2378   1.279       .  A
O1030      C2377   1.280       .  A
Ni1031    Ni2376   2.386   1_455  S
Ni1032    Ni2375   2.386       .  S
C1033      O2374   1.280       .  A
C1033      C1181   1.484       .  S
C1034      O2373   1.279       .  A
C1034      C1238   1.476       .  S
C1035      O2372   1.285       .  A
C1035      C1205   1.488       .  S
C1036      O2371   1.284       .  A
C1036      C1166   1.475       .  S
O1038     Ni1045   1.917       .  S
O1040     Ni1045   1.912       .  S
O1041     Ni1046   1.929       .  S
O1041      C1050   1.284       .  A
O1042      C1049   1.283       .  A
O1043     Ni1046   1.929       .  S
O1043      C1048   1.284       .  A
O1044      C1047   1.278       .  A
C1047      C1085   1.460       .  S
C1050      C1061   1.486       .  S
C1051      C1054   1.850   1_565  S
C1051      C2400   1.842   1_455  S
C1051      C1157   1.676       .  S
C1051      C1190   1.671       .  S
C1052      C2397   1.841       .  S
C1052      C1214   1.717       .  S
C1052      C1229   1.656       .  S
C1053      C2396   1.841       .  S
C1053      C1310   1.671       .  S
C1053      C1334   1.711       .  S
C1054      C1109   1.675       .  S
C1054      C1133   1.660       .  S
C1055      C1056   1.855       .  S
C1055      C1070   1.661   1_565  S
C1055      C1094   1.716       .  S
C1056      C2395   1.842       .  S
C1056      C1262   1.717       .  S
C1056      C1277   1.656       .  S
C1057      C1062   1.396       .  A
C1057      H1067   1.083       .  S
C1058      C1063   1.499       .  S
C1058      C1059   1.410       .  A
C1059      C1060   1.408       .  A
C1059      O1064   1.369       .  S
C1060      C1061   1.408       .  A
C1060      H1065   1.083       .  S
C1062      O1066   1.372       .  S
C1063      C1068   1.383       .  A
O1064      H1080   0.992       .  S
O1066      H1077   0.992       .  S
C1068      C1069   1.386       .  A
C1068      O1073   1.377       .  S
C1069      H1074   1.055       .  S
C1070      C1071   1.408       .  A
C1071      C1072   1.442       .  A
C1071      O1075   1.351       .  S
C1072      H1076   1.083       .  S
O1073      H1078   0.992       .  S
O1075      H1079   0.992       .  S
C1081      C1086   1.399       .  A
C1081      H1091   1.083       .  S
C1082      C1087   1.483       .  S
C1082      C1083   1.419   1_545  A
C1083      C1084   1.394       .  A
C1083      O1088   1.375       .  S
C1084      H1089   1.084       .  S
C1085      C1086   1.405       .  A
C1086      O1090   1.372       .  S
C1087      C1092   1.386   1_545  A
O1088      H1104   0.989       .  S
O1090      H1101   0.992       .  S
C1092      C1093   1.402       .  A
C1092      O1097   1.374       .  S
C1093      C1094   1.448       .  A
C1093      H1098   1.060       .  S
C1095      C1096   1.395       .  A
C1095      O1099   1.343       .  S
C1096      H1100   1.084       .  S
O1097      H1102   0.992       .  S
O1099      H1103   0.955       .  S
C1105      C1110   1.398       .  A
C1105      H1115   1.085       .  S
C1106      C1111   1.486       .  S
C1106      C1107   1.392       .  A
C1107      C1108   1.408       .  A
C1107      O1112   1.372       .  S
C1108      H1113   1.073       .  S
C1109      C1110   1.441       .  A
C1110      O1114   1.342   1_545  S
C1111      C1116   1.407       .  A
O1112      H1128   0.992       .  S
O1114      H1125   0.965       .  S
C1116      C1117   1.405       .  A
C1116      O1121   1.370       .  S
C1117      H1122   1.083       .  S
C1118      C1119   1.411   1_545  A
C1119      C1120   1.400       .  A
C1119      O1123   1.372       .  S
C1120      H1124   1.083       .  S
O1121      H1126   0.992       .  S
O1123      H1127   0.992       .  S
C1129      C1134   1.408       .  A
C1129      H1139   1.078       .  S
C1130      C1135   1.487       .  S
C1130      C1131   1.396   1_545  A
C1131      C1132   1.405       .  A
C1131      O1136   1.373       .  S
C1132      C1133   1.433   1_565  A
C1132      H1137   1.049       .  S
C1134      O1138   1.357       .  S
C1135      C1140   1.408   1_545  A
O1136      H1152   0.992       .  S
O1138      H1149   0.994       .  S
C1140      C1141   1.398       .  A
C1140      O1145   1.370       .  S
C1141      C1142   1.406   1_565  A
C1141      H1146   1.083       .  S
C1143      C1144   1.407       .  A
C1143      O1147   1.371       .  S
C1144      H1148   1.084       .  S
O1145      H1150   0.992       .  S
O1147      H1151   0.992       .  S
C1153      C1154   1.381   1_455  A
C1153      C1158   1.396       .  A
C1153      H1163   1.085   1_455  S
C1154      C1159   1.479       .  S
C1154      C2499   1.391   1_655  A
C1155      C2498   1.391       .  A
C1155      C1156   1.406       .  A
C1155      O1160   1.371       .  S
C1156      C2501   1.402       .  A
C1156      H1161   1.022       .  S
C1157      C2500   1.402       .  A
C1157      C1158   1.472       .  A
C1158      O1162   1.374       .  S
C1159      C1164   1.408   1_655  A
C1159      C2512   1.405       .  A
O1160      H1176   0.992       .  S
O1162      H1173   0.993       .  S
C1164      C1165   1.394       .  A
C1164      O1169   1.376       .  S
C1165      C1166   1.402   1_455  A
C1165      H1170   1.084       .  S
C1166      C2511   1.409       .  A
C1167      C2510   1.409       .  A
C1167      C1168   1.406       .  A
C1167      O1171   1.371       .  S
C1168      C2503   1.405       .  A
C1168      H1172   1.083       .  S
O1169      H1174   0.991       .  S
O1171      H1175   0.992       .  S
C1177      C2522   1.399       .  A
C1177      C1182   1.400       .  A
C1177      H1187   1.077       .  S
C1178      C1183   1.488       .  S
C1178      C2521   1.399       .  A
C1178      C1179   1.412   1_655  A
C1179      C1180   1.401       .  A
C1179      O1184   1.372       .  S
C1180      C1181   1.404   1_455  A
C1180      H1185   1.083       .  S
C1181      C2526   1.413       .  A
C1182      C2525   1.413       .  A
C1182      O1186   1.372       .  S
C1183      C2532   1.395       .  A
C1183      C1192   1.386   1_655  A
O1184      H1200   0.992       .  S
O1186      H1197   0.992       .  S
C1188      C2527   1.395       .  A
C1188      C1189   1.410       .  A
C1188      O1193   1.371       .  S
C1189      C2534   1.424       .  A
C1189      H1194   1.044       .  S
C1190      C2533   1.424   1_455  A
C1190      C1191   1.456       .  A
C1191      C1192   1.403       .  A
C1191      O1195   1.364       .  S
C1192      H1196   1.084       .  S
O1193      H1198   0.992       .  S
O1195      H1199   0.993       .  S
C1201      C2546   1.400   1_455  A
C1201      C1206   1.398       .  A
C1201      H1211   1.083       .  S
C1202      C1207   1.484       .  S
C1202      C2545   1.400       .  A
C1202      C1203   1.409       .  A
C1203      C1204   1.403       .  A
C1203      O1208   1.372       .  S
C1204      C2549   1.406       .  A
C1204      H1209   1.083       .  S
C1205      C2548   1.406       .  A
C1205      C1206   1.416   1_655  A
C1206      O1210   1.372       .  S
C1207      C2556   1.381       .  A
C1207      C1216   1.385       .  A
O1208      H1224   0.992       .  S
O1210      H1221   0.992       .  S
C1212      C2551   1.381       .  A
C1212      C1213   1.393       .  A
C1212      O1217   1.375       .  S
C1213      C2558   1.460       .  A
C1213      H1218   1.067       .  S
C1214      C2557   1.460       .  A
C1214      C1215   1.459       .  A
C1215      C1216   1.421       .  A
C1215      O1219   1.348       .  S
C1216      H1220   1.084       .  S
O1217      H1222   0.992       .  S
O1219      H1223   0.992       .  S
C1225      C2570   1.395       .  A
C1225      C1230   1.411       .  A
C1225      H1235   1.083       .  S
C1226      C1231   1.498       .  S
C1226      C2569   1.395       .  A
C1226      C1227   1.398   1_655  A
C1227      C1228   1.398       .  A
C1227      O1232   1.371       .  S
C1228      C2573   1.438   1_455  A
C1228      H1233   1.054       .  S
C1229      C2572   1.438       .  A
C1229      C1230   1.446       .  A
C1230      O1234   1.373       .  S
C1231      C2580   1.415       .  A
C1231      C1240   1.409   1_655  A
O1232      H1248   0.989       .  S
O1234      H1245   0.993       .  S
C1236      C2575   1.415       .  A
C1236      C1237   1.401       .  A
C1236      O1241   1.370       .  S
C1237      C2582   1.402       .  A
C1237      H1242   1.084       .  S
C1238      C2581   1.402       .  A
C1238      C1239   1.407   1_655  A
C1239      C1240   1.400       .  A
C1239      O1243   1.372       .  S
C1240      H1244   1.082       .  S
O1241      H1246   0.991       .  S
O1243      H1247   0.992       .  S
C1249      C1250   1.404       .  A
C1249      C1254   1.402       .  A
C1249      H1259   1.081       .  S
C1250      C1255   1.491       .  S
C1250      C1251   1.408       .  A
C1251      C1252   1.403       .  A
C1251      O1256   1.372       .  S
C1252      C1253   1.410       .  A
C1252      H1257   1.083       .  S
C1253      C1254   1.413       .  A
C1254      O1258   1.372       .  S
C1255      C1260   1.380       .  A
C1255      C1264   1.381       .  A
O1256      H1272   0.990       .  S
O1258      H1269   0.992       .  S
C1260      C1261   1.398       .  A
C1260      O1265   1.375       .  S
C1261      C1262   1.424       .  A
C1261      H1266   1.021       .  S
C1262      C1263   1.498       .  A
C1263      C1264   1.419       .  A
C1263      O1267   1.380       .  S
C1264      H1268   1.084       .  S
O1265      H1270   0.992       .  S
O1267      H1271   0.994       .  S
C1273      C1274   1.387       .  A
C1273      C1278   1.406       .  A
C1273      H1283   1.084       .  S
C1274      C1279   1.493       .  S
C1274      C1275   1.392       .  A
C1275      C1276   1.396       .  A
C1275      O1280   1.373       .  S
C1276      C1277   1.425       .  A
C1276      H1281   1.051       .  S
C1277      C1278   1.480       .  A
C1278      O1282   1.383       .  S
C1279      C1284   1.409       .  A
C1279      C1288   1.404       .  A
O1280      H1296   0.992       .  S
O1282      H1293   0.980       .  S
C1284      C1285   1.407       .  A
C1284      O1289   1.376       .  S
C1285      C1286   1.410       .  A
C1285      H1290   1.083       .  S
C1286      C1287   1.410       .  A
C1287      C1288   1.399       .  A
C1287      O1291   1.371       .  S
C1288      H1292   1.079       .  S
O1289      H1294   0.992       .  S
O1291      H1295   0.992       .  S
C1297      C1298   1.404       .  A
C1297      C1302   1.400       .  A
C1297      H1307   1.083       .  S
C1298      C1303   1.481       .  S
C1298      C1299   1.410       .  A
C1299      C1300   1.399       .  A
C1299      O1304   1.371       .  S
C1300      C1301   1.399       .  A
C1300      H1305   1.084       .  S
C1301      C1302   1.407       .  A
C1302      O1306   1.372       .  S
C1303      C1308   1.387       .  A
C1303      C1312   1.388       .  A
O1304      H1320   0.992       .  S
O1306      H1317   0.992       .  S
C1308      C1309   1.400       .  A
C1308      O1313   1.374       .  S
C1309      C1310   1.443       .  A
C1309      H1314   1.052       .  S
C1310      C1311   1.463       .  A
C1311      C1312   1.405       .  A
C1311      O1315   1.377       .  S
C1312      H1316   1.082       .  S
O1313      H1318   0.991       .  S
O1315      H1319   0.976       .  S
C1321      C1322   1.406       .  A
C1321      C1326   1.404       .  A
C1321      H1331   1.079       .  S
C1322      C1327   1.484       .  S
C1322      C1323   1.404       .  A
C1323      C1324   1.397       .  A
C1323      O1328   1.370       .  S
C1324      C1325   1.408       .  A
C1324      H1329   1.083       .  S
C1325      C1326   1.411       .  A
C1326      O1330   1.371       .  S
C1327      C1332   1.395       .  A
C1327      C1336   1.381       .  A
O1328      H1344   0.992       .  S
O1330      H1341   0.992       .  S
C1332      C1333   1.417       .  A
C1332      O1337   1.373       .  S
C1333      C1334   1.454       .  A
C1333      H1338   1.062       .  S
C1334      C1335   1.465       .  A
C1335      C1336   1.404       .  A
C1335      O1339   1.378       .  S
C1336      H1340   1.085       .  S
O1337      H1342   0.992       .  S
O1339      H1343   0.993       .  S
O1345     Ni1353   1.930       .  S
O1345      C1355   1.285       .  A
O1346     Ni1689   1.929   1_554  S
O1346      C1356   1.285       .  A
O1347     Ni1353   1.910       .  S
O1347      C1357   1.278       .  A
O1348     Ni1689   1.916   1_554  S
O1348      C1358   1.281       .  A
O1349     Ni1354   1.929   1_554  S
O1349      C1358   1.284       .  A
O1350     Ni1690   1.921       .  S
O1350      C1357   1.282       .  A
O1351     Ni1354   1.898   1_554  S
O1351      C1356   1.278       .  A
O1352     Ni1690   1.904       .  S
O1352      C1355   1.279       .  A
Ni1353     O1682   1.931       .  S
Ni1353     O1684   1.920       .  S
Ni1353    Ni1690   2.385       .  S
Ni1354     O1686   1.923       .  S
Ni1354     O1688   1.904       .  S
Ni1354    Ni1689   2.385       .  S
C1355      C1622   1.489       .  S
C1356      C1661   1.485       .  S
C1357      C1637   1.466       .  S
C1358      C1589   1.492       .  S
O1359     Ni1703   1.920       .  S
O1359      C1369   1.282       .  A
O1360     Ni1367   1.921       .  S
O1360      C1370   1.283       .  A
O1361     Ni1703   1.904       .  S
O1361      C1371   1.278       .  A
O1362     Ni1367   1.897       .  S
O1362      C1372   1.278       .  A
O1363     Ni1368   1.931       .  S
O1364     Ni1704   1.935       .  S
O1365     Ni1368   1.919       .  S
O1366     Ni1704   1.920       .  S
Ni1367     O1695   1.924   1_554  S
Ni1367     O1697   1.905   1_554  S
Ni1368     O1700   1.934   1_554  S
Ni1368     O1702   1.918   1_554  S
C1369      C1517   1.484       .  S
C1370      C1574   1.478       .  S
C1371      C1541   1.488       .  S
C1372      C1502   1.477       .  S
O1373     Ni1717   1.913       .  S
O1373      C2055   1.280       .  A
O1374     Ni1381   1.916   1_554  S
O1374      C2056   1.282       .  A
O1375     Ni1717   1.916       .  S
O1375      C2057   1.281       .  A
O1376     Ni1381   1.915   1_554  S
O1376      C2058   1.281       .  A
O1377     Ni1382   1.925       .  S
O1377      C1386   1.283   1_545  A
O1378     Ni1718   1.930       .  S
O1378      C1385   1.285       .  A
O1379     Ni1382   1.925       .  S
O1379      C1384   1.283       .  A
O1380     Ni1718   1.910       .  S
O1380      C1383   1.279       .  A
Ni1381     O1709   1.910       .  S
Ni1381     O1711   1.917       .  S
Ni1381    Ni2054   2.387   1_556  S
Ni1382     O1714   1.921   1_554  S
Ni1382     O1716   1.908   1_554  S
Ni1382    Ni2053   2.387   1_544  S
C1383      O2045   1.280   1_545  A
C1383      C1421   1.462       .  S
C1384      O2046   1.283   1_545  A
C1384      C2150   1.492       .  S
C1385      O2047   1.281   1_545  A
C1385      C2126   1.491       .  S
C1386      O2048   1.281       .  A
C1386      C1397   1.482       .  S
C1387      C1390   1.850       .  S
C1387      C1493   1.676       .  S
C1387      C1526   1.672       .  S
C1388      C2063   1.844   1_445  S
C1388      C1550   1.716       .  S
C1388      C1565   1.657   1_455  S
C1389      C2062   1.876       .  S
C1389      C1646   1.669       .  S
C1389      C1670   1.710       .  S
C1390      C2061   1.877       .  S
C1390      C1445   1.679       .  S
C1390      C1469   1.660       .  S
C1391      C2060   1.845   1_655  S
C1391      C1392   1.855       .  S
C1391      C1406   1.667       .  S
C1391      C1430   1.711       .  S
C1392      C1598   1.713       .  S
C1392      C1613   1.658       .  S
C1393      C2066   1.408       .  A
C1393      C1398   1.398       .  A
C1393      H1403   1.082       .  S
C1394      C1399   1.496       .  S
C1394      C2065   1.408       .  A
C1394      C1395   1.410   1_565  A
C1395      C1396   1.406       .  A
C1395      O1400   1.369       .  S
C1396      C1397   1.407   1_545  A
C1396      H1401   1.084       .  S
C1397      C2070   1.407       .  A
C1398      C2069   1.409       .  A
C1398      O1402   1.372       .  S
C1399      C1404   1.382       .  A
C1399      C2080   1.395   1_565  A
O1400      H1416   0.991       .  S
O1402      H1413   0.992       .  S
C1404      C1405   1.386   1_565  A
C1404      O1409   1.377       .  S
C1405      C2078   1.440       .  A
C1405      H1410   1.055       .  S
C1406      C2077   1.441       .  A
C1406      C1407   1.411       .  A
C1407      C1408   1.442       .  A
C1407      O1411   1.351       .  S
C1408      C2071   1.396       .  A
C1408      H1412   1.083       .  S
O1409      H1414   0.992       .  S
O1411      H1415   0.993       .  S
C1417      C2090   1.405       .  A
C1417      C1422   1.399       .  A
C1417      H1427   1.083       .  S
C1418      C1423   1.479       .  S
C1418      C2089   1.404       .  A
C1418      C1419   1.418       .  A
C1419      C1420   1.393       .  A
C1419      O1424   1.376       .  S
C1420      C2093   1.398       .  A
C1420      H1425   1.084       .  S
C1421      C2092   1.397   1_545  A
C1421      C1422   1.406       .  A
C1422      O1426   1.372       .  S
C1423      C1428   1.385       .  A
C1423      C2104   1.376       .  A
O1424      H1440   0.989       .  S
O1426      H1437   0.992       .  S
C1428      C1429   1.401       .  A
C1428      O1433   1.374       .  S
C1429      C1430   1.448       .  A
C1429      H1434   1.060       .  S
C1430      C2103   1.448       .  A
C1431      C2102   1.453   1_545  A
C1431      C1432   1.394       .  A
C1431      O1435   1.341   1_545  S
C1432      C2095   1.376       .  A
C1432      H1436   1.084       .  S
O1433      H1438   0.992       .  S
O1435      H1439   0.949       .  S
C1441      C2114   1.382       .  A
C1441      C1446   1.399       .  A
C1441      H1451   1.085       .  S
C1442      C1447   1.488       .  S
C1442      C2113   1.382       .  A
C1442      C1443   1.392       .  A
C1443      C1444   1.409       .  A
C1443      O1448   1.372       .  S
C1444      C2117   1.461       .  A
C1444      H1449   1.073       .  S
C1445      C2116   1.462       .  A
C1445      C1446   1.442       .  A
C1446      O1450   1.343       .  S
C1447      C1452   1.408       .  A
C1447      C2128   1.403   1_545  A
O1448      H1464   0.992       .  S
O1450      H1461   0.965       .  S
C1452      C1453   1.405       .  A
C1452      O1457   1.370       .  S
C1453      C2126   1.408       .  A
C1453      H1458   1.083       .  S
C1454      C2057   1.488       .  S
C1454      C2125   1.409       .  A
C1454      C1455   1.411       .  A
C1455      C1456   1.399       .  A
C1455      O1459   1.372       .  S
C1456      C2119   1.404       .  A
C1456      H1460   1.084       .  S
O1457      H1462   0.992       .  S
O1459      H1463   0.992       .  S
C1465      C2138   1.387       .  A
C1465      C1470   1.405       .  A
C1465      H1475   1.081       .  S
C1466      C1471   1.483       .  S
C1466      C2137   1.387       .  A
C1466      C1467   1.393       .  A
C1467      C1468   1.402       .  A
C1467      O1472   1.372       .  S
C1468      C1469   1.433       .  A
C1468      H1473   1.048       .  S
C1469      C2142   1.433       .  A
C1470      C2141   1.434       .  A
C1470      O1474   1.356       .  S
C1471      C1476   1.407       .  A
C1471      C2152   1.403       .  A
O1472      H1488   0.992       .  S
O1474      H1485   0.994       .  S
C1476      C1477   1.398       .  A
C1476      O1481   1.370       .  S
C1477      C1478   1.405       .  A
C1477      H1482   1.083       .  S
C1478      C2056   1.487       .  S
C1478      C2151   1.414       .  A
C1479      C2150   1.415       .  A
C1479      C1480   1.404       .  A
C1479      O1483   1.371       .  S
C1480      C2143   1.405       .  A
C1480      H1484   1.084       .  S
O1481      H1486   0.991       .  S
O1483      H1487   0.992       .  S
C1489      C1490   1.383       .  A
C1489      C1494   1.397       .  A
C1489      H1499   1.085       .  S
C1490      C1495   1.482       .  S
C1491      C1492   1.406       .  A
C1491      O1496   1.371       .  S
C1492      H1497   1.023       .  S
C1493      C1494   1.473       .  A
C1494      O1498   1.374       .  S
C1495      C1500   1.409       .  A
O1496      H1512   0.991       .  S
O1498      H1509   0.993       .  S
C1500      C1501   1.394       .  A
C1500      O1505   1.376       .  S
C1501      C1502   1.402       .  A
C1501      H1506   1.084       .  S
C1503      C1504   1.407       .  A
C1503      O1507   1.371       .  S
C1504      H1508   1.083       .  S
O1505      H1510   0.992       .  S
O1507      H1511   0.992       .  S
C1513      C1518   1.401       .  A
C1513      H1523   1.075       .  S
C1514      C1519   1.488       .  S
C1514      C1515   1.412       .  A
C1515      C1516   1.401       .  A
C1515      O1520   1.372       .  S
C1516      C1517   1.405       .  A
C1516      H1521   1.083       .  S
C1518      O1522   1.371       .  S
C1519      C1528   1.386       .  A
O1520      H1536   0.992       .  S
O1522      H1533   0.992       .  S
C1524      C1525   1.410       .  A
C1524      O1529   1.371       .  S
C1525      H1530   1.046       .  S
C1526      C1527   1.456       .  A
C1527      C1528   1.404       .  A
C1527      O1531   1.364       .  S
C1528      H1532   1.084       .  S
O1529      H1534   0.992       .  S
O1531      H1535   0.993       .  S
C1537      C1542   1.398       .  A
C1537      H1547   1.083       .  S
C1538      C1543   1.484       .  S
C1538      C1539   1.409       .  A
C1539      C1540   1.403       .  A
C1539      O1544   1.371       .  S
C1540      H1545   1.083       .  S
C1541      C1542   1.416       .  A
C1542      O1546   1.371       .  S
C1543      C1552   1.386   1_655  A
O1544      H1560   0.992       .  S
O1546      H1557   0.992       .  S
C1548      C1549   1.391       .  A
C1548      O1553   1.375       .  S
C1549      H1554   1.067       .  S
C1550      C1551   1.457       .  A
C1551      C1552   1.422       .  A
C1551      O1555   1.349       .  S
C1552      H1556   1.084       .  S
O1553      H1558   0.992       .  S
O1555      H1559   0.992       .  S
C1561      C1566   1.411       .  A
C1561      H1571   1.083       .  S
C1562      C1567   1.501       .  S
C1562      C1563   1.400       .  A
C1563      C1564   1.399       .  A
C1563      O1568   1.371       .  S
C1564      H1569   1.055       .  S
C1565      C1566   1.447       .  A
C1566      O1570   1.373       .  S
C1567      C1576   1.409       .  A
O1568      H1584   0.990       .  S
O1570      H1581   0.993       .  S
C1572      C1573   1.402       .  A
C1572      O1577   1.371       .  S
C1573      H1578   1.084       .  S
C1574      C1575   1.407       .  A
C1575      C1576   1.399       .  A
C1575      O1579   1.372       .  S
C1576      H1580   1.082       .  S
O1577      H1582   0.990       .  S
O1579      H1583   0.992       .  S
C1585      C1586   1.403       .  A
C1585      C1590   1.401       .  A
C1585      H1595   1.080       .  S
C1586      C1591   1.489       .  S
C1586      C1587   1.407       .  A
C1587      C1588   1.403       .  A
C1587      O1592   1.372       .  S
C1588      C1589   1.411       .  A
C1588      H1593   1.083       .  S
C1589      C1590   1.412       .  A
C1590      O1594   1.371       .  S
C1591      C1596   1.379       .  A
C1591      C1600   1.381       .  A
O1592      H1608   0.991       .  S
O1594      H1605   0.992       .  S
C1596      C1597   1.395       .  A
C1596      O1601   1.375       .  S
C1597      C1598   1.422       .  A
C1597      H1602   1.019       .  S
C1598      C1599   1.496       .  A
C1599      C1600   1.418       .  A
C1599      O1603   1.380       .  S
C1600      H1604   1.084       .  S
O1601      H1606   0.992       .  S
O1603      H1607   0.994       .  S
C1609      C1610   1.387       .  A
C1609      C1614   1.407       .  A
C1609      H1619   1.084       .  S
C1610      C1615   1.491       .  S
C1610      C1611   1.390       .  A
C1611      C1612   1.395       .  A
C1611      O1616   1.373       .  S
C1612      C1613   1.426       .  A
C1612      H1617   1.050       .  S
C1613      C1614   1.480       .  A
C1614      O1618   1.383       .  S
C1615      C1620   1.407       .  A
C1615      C1624   1.405       .  A
O1616      H1632   0.992       .  S
O1618      H1629   0.981       .  S
C1620      C1621   1.405       .  A
C1620      O1625   1.376       .  S
C1621      C1622   1.410       .  A
C1621      H1626   1.083       .  S
C1622      C1623   1.410       .  A
C1623      C1624   1.400       .  A
C1623      O1627   1.371       .  S
C1624      H1628   1.080       .  S
O1625      H1630   0.992       .  S
O1627      H1631   0.992       .  S
C1633      C1634   1.404       .  A
C1633      C1638   1.400       .  A
C1633      H1643   1.083       .  S
C1634      C1639   1.481       .  S
C1634      C1635   1.410       .  A
C1635      C1636   1.399       .  A
C1635      O1640   1.371       .  S
C1636      C1637   1.399       .  A
C1636      H1641   1.084       .  S
C1637      C1638   1.406       .  A
C1638      O1642   1.372       .  S
C1639      C1644   1.388       .  A
C1639      C1648   1.388       .  A
O1640      H1656   0.992       .  S
O1642      H1653   0.992       .  S
C1644      C1645   1.400       .  A
C1644      O1649   1.374       .  S
C1645      C1646   1.440       .  A
C1645      H1650   1.052       .  S
C1646      C1647   1.463       .  A
C1647      C1648   1.405       .  A
C1647      O1651   1.378       .  S
C1648      H1652   1.082       .  S
O1649      H1654   0.991       .  S
O1651      H1655   0.977       .  S
C1657      C1658   1.405       .  A
C1657      C1662   1.400       .  A
C1657      H1667   1.080       .  S
C1658      C1663   1.481       .  S
C1658      C1659   1.406       .  A
C1659      C1660   1.396       .  A
C1659      O1664   1.371       .  S
C1660      C1661   1.408       .  A
C1660      H1665   1.083       .  S
C1661      C1662   1.410       .  A
C1662      O1666   1.371       .  S
C1663      C1668   1.394       .  A
C1663      C1672   1.380       .  A
O1664      H1680   0.992       .  S
O1666      H1677   0.992       .  S
C1668      C1669   1.414       .  A
C1668      O1673   1.372       .  S
C1669      C1670   1.453       .  A
C1669      H1674   1.061       .  S
C1670      C1671   1.466       .  A
C1671      C1672   1.401       .  A
C1671      O1675   1.378       .  S
C1672      H1676   1.085       .  S
O1673      H1678   0.992       .  S
O1675      H1679   0.993       .  S
O1681     Ni1689   1.929       .  S
O1681      C1691   1.285       .  A
O1682      C1692   1.285       .  A
O1683     Ni1689   1.909       .  S
O1683      C1693   1.278       .  A
O1684      C1694   1.281       .  A
O1685     Ni1690   1.926       .  S
O1685      C1694   1.284       .  A
O1686      C1693   1.282       .  A
O1687     Ni1690   1.900       .  S
O1687      C1692   1.278       .  A
O1688      C1691   1.279       .  A
C1691      C1958   1.489       .  S
C1692      C1997   1.487       .  S
C1693      C1973   1.468       .  S
C1694      C1925   1.492       .  S
O1695      C1705   1.283       .  A
O1696     Ni1703   1.918       .  S
O1696      C1706   1.282       .  A
O1697      C1707   1.278       .  A
O1698     Ni1703   1.898       .  S
O1698      C1708   1.279       .  A
O1699     Ni1704   1.934       .  S
O1701     Ni1704   1.920       .  S
C1705      C1853   1.485       .  S
C1706      C1910   1.478       .  S
C1707      C1877   1.490       .  S
C1708      C1838   1.479       .  S
O1709      C2391   1.280       .  A
O1710     Ni1717   1.923       .  S
O1710      C2392   1.283       .  A
O1711      C2393   1.282       .  A
O1712     Ni1717   1.915       .  S
O1712      C2394   1.281       .  A
O1713     Ni1718   1.933       .  S
O1713      C1722   1.285       .  A
O1714      C1721   1.283       .  A
O1715     Ni1718   1.928       .  S
O1715      C1720   1.283       .  A
O1716      C1719   1.278       .  A
Ni1717    Ni2390   2.386       .  S
Ni1718    Ni2389   2.386   1_545  S
C1719      O2381   1.280   1_545  A
C1719      C1757   1.461       .  S
C1720      O2382   1.282   1_545  A
C1720      C2486   1.491       .  S
C1721      O2383   1.281   1_545  A
C1721      C2462   1.485       .  S
C1722      O2384   1.280   1_545  A
C1722      C1733   1.486   1_545  S
C1723      C1726   1.851       .  S
C1723      C1829   1.675       .  S
C1723      C1862   1.673       .  S
C1724      C2399   1.845   1_445  S
C1724      C1886   1.717       .  S
C1724      C1901   1.659   1_455  S
C1725      C2398   1.876       .  S
C1725      C1982   1.669       .  S
C1725      C2006   1.711       .  S
C1726      C2397   1.879       .  S
C1726      C1781   1.666       .  S
C1726      C1805   1.667       .  S
C1727      C2396   1.841   1_655  S
C1727      C1728   1.853       .  S
C1727      C1742   1.665       .  S
C1727      C1766   1.722       .  S
C1728      C1934   1.716       .  S
C1728      C1949   1.654       .  S
C1729      C2402   1.408       .  A
C1729      C1734   1.398       .  A
C1729      H1739   1.082       .  S
C1730      C1735   1.496       .  S
C1730      C2401   1.406       .  A
C1730      C1731   1.410   1_565  A
C1731      C1732   1.408       .  A
C1731      O1736   1.370       .  S
C1732      C1733   1.409   1_545  A
C1732      H1737   1.083       .  S
C1733      C2406   1.409       .  A
C1734      C2405   1.408       .  A
C1734      O1738   1.372       .  S
C1735      C1740   1.383       .  A
C1735      C2416   1.395   1_565  A
O1736      H1752   0.991       .  S
O1738      H1749   0.992       .  S
C1740      C1741   1.386   1_565  A
C1740      O1745   1.377   1_565  S
C1741      C2414   1.440       .  A
C1741      H1746   1.054       .  S
C1742      C2413   1.440       .  A
C1742      C1743   1.409       .  A
C1743      C1744   1.444       .  A
C1743      O1747   1.352       .  S
C1744      C2407   1.397       .  A
C1744      H1748   1.083       .  S
O1745      H1750   0.992   1_545  S
O1747      H1751   0.992       .  S
C1753      C2426   1.405       .  A
C1753      C1758   1.397       .  A
C1753      H1763   1.083       .  S
C1754      C1759   1.480       .  S
C1754      C2425   1.404       .  A
C1754      C1755   1.417       .  A
C1755      C1756   1.392       .  A
C1755      O1760   1.375       .  S
C1756      C2429   1.397       .  A
C1756      H1761   1.084       .  S
C1757      C2428   1.397   1_545  A
C1757      C1758   1.405       .  A
C1758      O1762   1.372       .  S
C1759      C1764   1.383       .  A
C1759      C2440   1.376       .  A
O1760      H1776   0.989       .  S
O1762      H1773   0.992       .  S
C1764      C1765   1.403       .  A
C1764      O1769   1.373       .  S
C1765      C1766   1.450       .  A
C1765      H1770   1.059       .  S
C1766      C2439   1.454       .  A
C1767      C2438   1.451   1_545  A
C1767      C1768   1.394       .  A
C1767      O1771   1.340   1_545  S
C1768      C2431   1.377       .  A
C1768      H1772   1.084       .  S
O1769      H1774   0.992       .  S
O1771      H1775   0.957       .  S
C1777      C2450   1.383       .  A
C1777      C1782   1.399       .  A
C1777      H1787   1.085       .  S
C1778      C1783   1.484       .  S
C1778      C2449   1.381       .  A
C1778      C1779   1.390       .  A
C1779      C1780   1.406       .  A
C1779      O1784   1.373       .  S
C1780      C2453   1.461       .  A
C1780      H1785   1.072       .  S
C1781      C2452   1.460       .  A
C1781      C1782   1.432       .  A
C1782      O1786   1.341       .  S
C1783      C1788   1.406       .  A
C1783      C2464   1.403   1_545  A
O1784      H1800   0.992       .  S
O1786      H1797   0.971       .  S
C1788      C1789   1.403       .  A
C1788      O1793   1.371       .  S
C1789      C2462   1.408       .  A
C1789      H1794   1.083       .  S
C1790      C2393   1.489       .  S
C1790      C2461   1.409       .  A
C1790      C1791   1.412       .  A
C1791      C1792   1.400       .  A
C1791      O1795   1.372       .  S
C1792      C2455   1.402       .  A
C1792      H1796   1.083       .  S
O1793      H1798   0.992       .  S
O1795      H1799   0.992       .  S
C1801      C2474   1.387       .  A
C1801      C1806   1.404       .  A
C1801      H1811   1.080       .  S
C1802      C1807   1.498       .  S
C1802      C2473   1.389       .  A
C1802      C1803   1.398       .  A
C1803      C1804   1.409       .  A
C1803      O1808   1.373       .  S
C1804      C1805   1.436       .  A
C1804      H1809   1.051       .  S
C1805      C2478   1.432       .  A
C1806      C2477   1.431       .  A
C1806      O1810   1.358       .  S
C1807      C1812   1.410       .  A
C1807      C2488   1.406       .  A
O1808      H1824   0.992       .  S
O1810      H1821   0.994       .  S
C1812      C1813   1.402       .  A
C1812      O1817   1.369       .  S
C1813      C1814   1.407       .  A
C1813      H1818   1.083       .  S
C1814      C2392   1.496       .  S
C1814      C2487   1.415       .  A
C1815      C2486   1.415       .  A
C1815      C1816   1.405       .  A
C1815      O1819   1.371       .  S
C1816      C2479   1.405       .  A
C1816      H1820   1.084       .  S
O1817      H1822   0.991       .  S
O1819      H1823   0.992       .  S
C1825      C1826   1.384       .  A
C1825      C1830   1.399       .  A
C1825      H1835   1.085       .  S
C1826      C1831   1.484       .  S
C1827      C1828   1.406       .  A
C1827      O1832   1.371       .  S
C1828      H1833   1.025       .  S
C1829      C1830   1.471       .  A
C1830      O1834   1.373       .  S
C1831      C1836   1.408       .  A
O1832      H1848   0.991       .  S
O1834      H1845   0.993       .  S
C1836      C1837   1.395       .  A
C1836      O1841   1.376       .  S
C1837      C1838   1.402       .  A
C1837      H1842   1.084       .  S
C1839      C1840   1.408       .  A
C1839      O1843   1.371       .  S
C1840      H1844   1.083       .  S
O1841      H1846   0.992       .  S
O1843      H1847   0.992       .  S
C1849      C1854   1.402       .  A
C1849      H1859   1.077       .  S
C1850      C1855   1.491       .  S
C1850      C1851   1.412       .  A
C1851      C1852   1.402       .  A
C1851      O1856   1.372       .  S
C1852      C1853   1.404       .  A
C1852      H1857   1.083       .  S
C1854      O1858   1.372       .  S
C1855      C1864   1.386       .  A
O1856      H1872   0.992       .  S
O1858      H1869   0.992       .  S
C1860      C1861   1.411       .  A
C1860      O1865   1.371       .  S
C1861      H1866   1.042       .  S
C1862      C1863   1.458       .  A
C1863      C1864   1.407       .  A
C1863      O1867   1.363       .  S
C1864      H1868   1.084       .  S
O1865      H1870   0.992       .  S
O1867      H1871   0.993       .  S
C1873      C1878   1.398       .  A
C1873      H1883   1.083       .  S
C1874      C1879   1.485       .  S
C1874      C1875   1.410       .  A
C1875      C1876   1.405       .  A
C1875      O1880   1.372       .  S
C1876      H1881   1.083       .  S
C1877      C1878   1.416       .  A
C1878      O1882   1.371       .  S
C1879      C1888   1.387   1_655  A
O1880      H1896   0.992       .  S
O1882      H1893   0.992       .  S
C1884      C1885   1.392       .  A
C1884      O1889   1.374       .  S
C1885      H1890   1.068       .  S
C1886      C1887   1.457       .  A
C1887      C1888   1.422       .  A
C1887      O1891   1.350       .  S
C1888      H1892   1.084       .  S
O1889      H1894   0.992       .  S
O1891      H1895   0.992       .  S
C1897      C1902   1.412       .  A
C1897      H1907   1.083       .  S
C1898      C1903   1.503       .  S
C1898      C1899   1.401       .  A
C1899      C1900   1.400       .  A
C1899      O1904   1.372       .  S
C1900      H1905   1.055       .  S
C1901      C1902   1.447       .  A
C1902      O1906   1.373       .  S
C1903      C1912   1.409       .  A
O1904      H1920   0.990       .  S
O1906      H1917   0.994       .  S
C1908      C1909   1.402       .  A
C1908      O1913   1.371       .  S
C1909      H1914   1.084       .  S
C1910      C1911   1.407       .  A
C1911      C1912   1.399       .  A
C1911      O1915   1.372       .  S
C1912      H1916   1.082       .  S
O1913      H1918   0.990       .  S
O1915      H1919   0.992       .  S
C1921      C1922   1.403       .  A
C1921      C1926   1.400       .  A
C1921      H1931   1.081       .  S
C1922      C1927   1.491       .  S
C1922      C1923   1.408       .  A
C1923      C1924   1.405       .  A
C1923      O1928   1.372       .  S
C1924      C1925   1.410       .  A
C1924      H1929   1.083       .  S
C1925      C1926   1.412       .  A
C1926      O1930   1.371       .  S
C1927      C1932   1.379       .  A
C1927      C1936   1.382       .  A
O1928      H1944   0.990       .  S
O1930      H1941   0.992       .  S
C1932      C1933   1.395       .  A
C1932      O1937   1.375       .  S
C1933      C1934   1.421       .  A
C1933      H1938   1.018       .  S
C1934      C1935   1.498       .  A
C1935      C1936   1.420       .  A
C1935      O1939   1.381       .  S
C1936      H1940   1.084       .  S
O1937      H1942   0.991       .  S
O1939      H1943   0.994       .  S
C1945      C1946   1.388       .  A
C1945      C1950   1.406       .  A
C1945      H1955   1.083       .  S
C1946      C1951   1.494       .  S
C1946      C1947   1.392       .  A
C1947      C1948   1.396       .  A
C1947      O1952   1.372       .  S
C1948      C1949   1.423       .  A
C1948      H1953   1.051       .  S
C1949      C1950   1.479       .  A
C1950      O1954   1.383       .  S
C1951      C1956   1.410       .  A
C1951      C1960   1.405       .  A
O1952      H1968   0.992       .  S
O1954      H1965   0.980       .  S
C1956      C1957   1.405       .  A
C1956      O1961   1.376       .  S
C1957      C1958   1.410       .  A
C1957      H1962   1.083       .  S
C1958      C1959   1.409       .  A
C1959      C1960   1.399       .  A
C1959      O1963   1.371       .  S
C1960      H1964   1.080       .  S
O1961      H1966   0.992       .  S
O1963      H1967   0.992       .  S
C1969      C1970   1.404       .  A
C1969      C1974   1.401       .  A
C1969      H1979   1.083       .  S
C1970      C1975   1.482       .  S
C1970      C1971   1.410       .  A
C1971      C1972   1.399       .  A
C1971      O1976   1.371       .  S
C1972      C1973   1.400       .  A
C1972      H1977   1.084       .  S
C1973      C1974   1.407       .  A
C1974      O1978   1.372       .  S
C1975      C1980   1.388       .  A
C1975      C1984   1.388       .  A
O1976      H1992   0.992       .  S
O1978      H1989   0.992       .  S
C1980      C1981   1.401       .  A
C1980      O1985   1.374       .  S
C1981      C1982   1.441       .  A
C1981      H1986   1.053       .  S
C1982      C1983   1.462       .  A
C1983      C1984   1.405       .  A
C1983      O1987   1.377       .  S
C1984      H1988   1.082       .  S
O1985      H1990   0.991       .  S
O1987      H1991   0.977       .  S
C1993      C1994   1.406       .  A
C1993      C1998   1.401       .  A
C1993      H2003   1.080       .  S
C1994      C1999   1.486       .  S
C1994      C1995   1.407       .  A
C1995      C1996   1.399       .  A
C1995      O2000   1.371       .  S
C1996      C1997   1.409       .  A
C1996      H2001   1.083       .  S
C1997      C1998   1.410       .  A
C1998      O2002   1.372       .  S
C1999      C2004   1.395       .  A
C1999      C2008   1.381       .  A
O2000      H2016   0.992       .  S
O2002      H2013   0.992       .  S
C2004      C2005   1.415       .  A
C2004      O2009   1.372       .  S
C2005      C2006   1.452       .  A
C2005      H2010   1.060       .  S
C2006      C2007   1.468       .  A
C2007      C2008   1.402       .  A
C2007      O2011   1.378       .  S
C2008      H2012   1.085       .  S
O2009      H2014   0.992       .  S
O2011      H2015   0.994       .  S
O2017     Ni2025   1.931       .  S
O2017      C2027   1.285       .  A
O2018     Ni2361   1.929   1_554  S
O2018      C2028   1.285       .  A
O2019     Ni2025   1.912       .  S
O2019      C2029   1.278       .  A
O2020     Ni2361   1.918   1_554  S
O2020      C2030   1.281       .  A
O2021     Ni2026   1.933   1_554  S
O2021      C2030   1.285       .  A
O2022     Ni2362   1.924       .  S
O2022      C2029   1.282       .  A
O2023     Ni2026   1.903   1_554  S
O2023      C2028   1.279       .  A
O2024     Ni2362   1.905       .  S
O2024      C2027   1.279       .  A
Ni2025     O2354   1.934       .  S
Ni2025     O2356   1.919       .  S
Ni2025    Ni2362   2.385       .  S
Ni2026     O2358   1.924       .  S
Ni2026     O2360   1.908       .  S
Ni2026    Ni2361   2.385       .  S
C2027      C2294   1.490       .  S
C2028      C2333   1.488       .  S
C2029      C2309   1.468       .  S
C2030      C2261   1.496       .  S
O2031     Ni2375   1.927       .  S
O2031      C2041   1.284       .  A
O2032     Ni2039   1.922       .  S
O2032      C2042   1.283       .  A
O2033     Ni2375   1.904       .  S
O2033      C2043   1.278       .  A
O2034     Ni2039   1.896       .  S
O2034      C2044   1.278       .  A
O2035     Ni2040   1.933       .  S
O2036     Ni2376   1.931       .  S
O2037     Ni2040   1.916       .  S
O2038     Ni2376   1.915       .  S
Ni2039     O2367   1.924   1_554  S
Ni2039     O2369   1.904   1_554  S
Ni2040     O2372   1.932   1_554  S
Ni2040     O2374   1.915   1_554  S
C2041      C2189   1.485       .  S
C2042      C2246   1.478       .  S
C2043      C2213   1.489       .  S
C2044      C2174   1.476       .  S
O2045     Ni2389   1.910       .  S
O2046     Ni2053   1.919   1_554  S
O2047     Ni2389   1.916       .  S
O2048     Ni2053   1.913   1_554  S
O2049     Ni2054   1.927       .  S
O2049      C2058   1.284       .  A
O2050     Ni2390   1.927       .  S
O2050      C2057   1.283       .  A
O2051     Ni2054   1.925       .  S
O2051      C2056   1.282       .  A
O2052     Ni2390   1.908       .  S
O2052      C2055   1.278       .  A
Ni2053     O2381   1.913       .  S
Ni2053     O2383   1.916       .  S
Ni2054     O2386   1.926   1_554  S
Ni2054     O2388   1.908   1_554  S
C2055      C2093   1.460       .  S
C2058      C2069   1.485       .  S
C2059      C2062   1.851   1_565  S
C2059      C2165   1.673       .  S
C2059      C2198   1.671       .  S
C2060      C2222   1.717       .  S
C2060      C2237   1.657   1_455  S
C2061      C2318   1.670       .  S
C2061      C2342   1.711       .  S
C2062      C2117   1.672       .  S
C2062      C2141   1.663       .  S
C2063      C2064   1.854       .  S
C2063      C2078   1.665   1_565  S
C2063      C2102   1.720       .  S
C2064      C2270   1.719       .  S
C2064      C2285   1.656       .  S
C2065      C2070   1.396       .  A
C2065      H2075   1.082       .  S
C2066      C2071   1.497       .  S
C2066      C2067   1.409       .  A
C2067      C2068   1.406       .  A
C2067      O2072   1.369       .  S
C2068      C2069   1.408       .  A
C2068      H2073   1.083       .  S
C2070      O2074   1.372       .  S
C2071      C2076   1.382       .  A
O2072      H2088   0.992       .  S
O2074      H2085   0.992       .  S
C2076      C2077   1.387       .  A
C2076      O2081   1.377       .  S
C2077      H2082   1.055       .  S
C2078      C2079   1.409       .  A
C2079      C2080   1.442       .  A
C2079      O2083   1.350       .  S
C2080      H2084   1.083       .  S
O2081      H2086   0.992       .  S
O2083      H2087   0.992       .  S
C2089      C2094   1.397       .  A
C2089      H2099   1.083       .  S
C2090      C2095   1.480       .  S
C2090      C2091   1.417   1_545  A
C2091      C2092   1.392       .  A
C2091      O2096   1.376       .  S
C2092      H2097   1.084       .  S
C2093      C2094   1.404       .  A
C2094      O2098   1.372       .  S
C2095      C2100   1.383   1_545  A
O2096      H2112   0.989       .  S
O2098      H2109   0.992       .  S
C2100      C2101   1.402       .  A
C2100      O2105   1.373       .  S
C2101      C2102   1.449       .  A
C2101      H2106   1.059       .  S
C2103      C2104   1.392       .  A
C2103      O2107   1.340       .  S
C2104      H2108   1.083       .  S
O2105      H2110   0.992   1_565  S
O2107      H2111   0.961       .  S
C2113      C2118   1.400       .  A
C2113      H2123   1.085       .  S
C2114      C2119   1.487       .  S
C2114      C2115   1.391       .  A
C2115      C2116   1.408       .  A
C2115      O2120   1.373       .  S
C2116      H2121   1.072       .  S
C2117      C2118   1.435       .  A
C2118      O2122   1.340   1_545  S
C2119      C2124   1.408       .  A
O2120      H2136   0.992       .  S
O2122      H2133   0.967       .  S
C2124      C2125   1.406       .  A
C2124      O2129   1.371       .  S
C2125      H2130   1.083       .  S
C2126      C2127   1.414   1_545  A
C2127      C2128   1.401       .  A
C2127      O2131   1.372       .  S
C2128      H2132   1.084       .  S
O2129      H2134   0.992       .  S
O2131      H2135   0.992       .  S
C2137      C2142   1.406       .  A
C2137      H2147   1.081       .  S
C2138      C2143   1.491       .  S
C2138      C2139   1.396   1_545  A
C2139      C2140   1.406       .  A
C2139      O2144   1.373       .  S
C2140      C2141   1.433   1_565  A
C2140      H2145   1.050       .  S
C2142      O2146   1.358       .  S
C2143      C2148   1.409   1_545  A
O2144      H2160   0.992       .  S
O2146      H2157   0.994       .  S
C2148      C2149   1.399       .  A
C2148      O2153   1.369       .  S
C2149      C2150   1.406   1_565  A
C2149      H2154   1.083       .  S
C2151      C2152   1.404       .  A
C2151      O2155   1.371       .  S
C2152      H2156   1.084       .  S
O2153      H2158   0.992       .  S
O2155      H2159   0.992       .  S
C2161      C2162   1.383       .  A
C2161      C2166   1.397       .  A
C2161      H2171   1.084       .  S
C2162      C2167   1.483       .  S
C2163      C2164   1.404       .  A
C2163      O2168   1.372       .  S
C2164      H2169   1.023       .  S
C2165      C2166   1.471       .  A
C2166      O2170   1.373       .  S
C2167      C2172   1.409       .  A
O2168      H2184   0.992       .  S
O2170      H2181   0.993       .  S
C2172      C2173   1.394       .  A
C2172      O2177   1.377       .  S
C2173      C2174   1.402       .  A
C2173      H2178   1.084       .  S
C2175      C2176   1.407       .  A
C2175      O2179   1.371       .  S
C2176      H2180   1.083       .  S
O2177      H2182   0.992       .  S
O2179      H2183   0.992       .  S
C2185      C2190   1.401       .  A
C2185      H2195   1.076       .  S
C2186      C2191   1.489       .  S
C2186      C2187   1.413       .  A
C2187      C2188   1.402       .  A
C2187      O2192   1.372       .  S
C2188      C2189   1.404       .  A
C2188      H2193   1.083       .  S
C2190      O2194   1.372       .  S
C2191      C2200   1.386       .  A
O2192      H2208   0.992       .  S
O2194      H2205   0.992       .  S
C2196      C2197   1.410       .  A
C2196      O2201   1.371       .  S
C2197      H2202   1.044       .  S
C2198      C2199   1.457       .  A
C2199      C2200   1.404       .  A
C2199      O2203   1.363       .  S
C2200      H2204   1.084       .  S
O2201      H2206   0.992       .  S
O2203      H2207   0.993       .  S
C2209      C2214   1.398       .  A
C2209      H2219   1.083       .  S
C2210      C2215   1.482       .  S
C2210      C2211   1.408       .  A
C2211      C2212   1.403       .  A
C2211      O2216   1.371       .  S
C2212      H2217   1.083       .  S
C2213      C2214   1.417       .  A
C2214      O2218   1.372       .  S
C2215      C2224   1.385   1_655  A
O2216      H2232   0.992       .  S
O2218      H2229   0.992       .  S
C2220      C2221   1.392       .  A
C2220      O2225   1.374       .  S
C2221      H2226   1.067       .  S
C2222      C2223   1.457       .  A
C2223      C2224   1.420       .  A
C2223      O2227   1.347       .  S
C2224      H2228   1.084       .  S
O2225      H2230   0.992       .  S
O2227      H2231   0.992       .  S
C2233      C2238   1.412       .  A
C2233      H2243   1.083       .  S
C2234      C2239   1.501       .  S
C2234      C2235   1.399       .  A
C2235      C2236   1.398       .  A
C2235      O2240   1.371       .  S
C2236      H2241   1.055       .  S
C2237      C2238   1.447       .  A
C2238      O2242   1.373       .  S
C2239      C2248   1.410       .  A
O2240      H2256   0.989       .  S
O2242      H2253   0.994       .  S
C2244      C2245   1.401       .  A
C2244      O2249   1.371       .  S
C2245      H2250   1.084       .  S
C2246      C2247   1.407       .  A
C2247      C2248   1.400       .  A
C2247      O2251   1.372       .  S
C2248      H2252   1.082       .  S
O2249      H2254   0.990       .  S
O2251      H2255   0.992       .  S
C2257      C2258   1.404       .  A
C2257      C2262   1.403       .  A
C2257      H2267   1.080       .  S
C2258      C2263   1.492       .  S
C2258      C2259   1.407       .  A
C2259      C2260   1.404       .  A
C2259      O2264   1.371       .  S
C2260      C2261   1.411       .  A
C2260      H2265   1.083       .  S
C2261      C2262   1.413       .  A
C2262      O2266   1.372       .  S
C2263      C2268   1.378       .  A
C2263      C2272   1.383       .  A
O2264      H2280   0.990       .  S
O2266      H2277   0.992       .  S
C2268      C2269   1.397       .  A
C2268      O2273   1.375       .  S
C2269      C2270   1.423       .  A
C2269      H2274   1.019       .  S
C2270      C2271   1.498       .  A
C2271      C2272   1.422       .  A
C2271      O2275   1.380       .  S
C2272      H2276   1.084       .  S
O2273      H2278   0.991       .  S
O2275      H2279   0.994       .  S
C2281      C2282   1.388       .  A
C2281      C2286   1.406       .  A
C2281      H2291   1.083       .  S
C2282      C2287   1.494       .  S
C2282      C2283   1.392       .  A
C2283      C2284   1.397       .  A
C2283      O2288   1.373       .  S
C2284      C2285   1.425       .  A
C2284      H2289   1.050       .  S
C2285      C2286   1.479       .  A
C2286      O2290   1.382       .  S
C2287      C2292   1.409       .  A
C2287      C2296   1.405       .  A
O2288      H2304   0.992       .  S
O2290      H2301   0.980       .  S
C2292      C2293   1.406       .  A
C2292      O2297   1.376       .  S
C2293      C2294   1.410       .  A
C2293      H2298   1.083       .  S
C2294      C2295   1.409       .  A
C2295      C2296   1.400       .  A
C2295      O2299   1.371       .  S
C2296      H2300   1.079       .  S
O2297      H2302   0.992       .  S
O2299      H2303   0.992       .  S
C2305      C2306   1.403       .  A
C2305      C2310   1.401       .  A
C2305      H2315   1.084       .  S
C2306      C2311   1.480       .  S
C2306      C2307   1.410       .  A
C2307      C2308   1.399       .  A
C2307      O2312   1.371       .  S
C2308      C2309   1.400       .  A
C2308      H2313   1.084       .  S
C2309      C2310   1.407       .  A
C2310      O2314   1.372       .  S
C2311      C2316   1.387       .  A
C2311      C2320   1.387       .  A
O2312      H2328   0.992       .  S
O2314      H2325   0.991       .  S
C2316      C2317   1.401       .  A
C2316      O2321   1.374       .  S
C2317      C2318   1.443       .  A
C2317      H2322   1.053       .  S
C2318      C2319   1.463       .  A
C2319      C2320   1.405       .  A
C2319      O2323   1.377       .  S
C2320      H2324   1.083       .  S
O2321      H2326   0.991       .  S
O2323      H2327   0.976       .  S
C2329      C2330   1.404       .  A
C2329      C2334   1.401       .  A
C2329      H2339   1.081       .  S
C2330      C2335   1.484       .  S
C2330      C2331   1.407       .  A
C2331      C2332   1.399       .  A
C2331      O2336   1.370       .  S
C2332      C2333   1.408       .  A
C2332      H2337   1.083       .  S
C2333      C2334   1.411       .  A
C2334      O2338   1.371       .  S
C2335      C2340   1.394       .  A
C2335      C2344   1.381       .  A
O2336      H2352   0.992       .  S
O2338      H2349   0.992       .  S
C2340      C2341   1.415       .  A
C2340      O2345   1.372       .  S
C2341      C2342   1.454       .  A
C2341      H2346   1.060       .  S
C2342      C2343   1.466       .  A
C2343      C2344   1.402       .  A
C2343      O2347   1.378       .  S
C2344      H2348   1.085       .  S
O2345      H2350   0.992       .  S
O2347      H2351   0.993       .  S
O2353     Ni2361   1.928       .  S
O2353      C2363   1.285       .  A
O2354      C2364   1.285       .  A
O2355     Ni2361   1.907       .  S
O2355      C2365   1.277       .  A
O2356      C2366   1.281       .  A
O2357     Ni2362   1.929       .  S
O2357      C2366   1.284       .  A
O2358      C2365   1.282       .  A
O2359     Ni2362   1.901       .  S
O2359      C2364   1.278       .  A
O2360      C2363   1.279       .  A
C2363      C2630   1.490       .  S
C2364      C2669   1.488       .  S
C2365      C2645   1.466       .  S
C2366      C2597   1.493       .  S
O2367      C2377   1.283       .  A
O2368     Ni2375   1.924       .  S
O2368      C2378   1.283       .  A
O2369      C2379   1.278       .  A
O2370     Ni2375   1.897       .  S
O2370      C2380   1.278       .  A
O2371     Ni2376   1.930       .  S
O2373     Ni2376   1.915       .  S
C2377      C2525   1.484       .  S
C2378      C2582   1.476       .  S
C2379      C2549   1.488       .  S
C2380      C2510   1.475       .  S
O2382     Ni2389   1.917       .  S
O2384     Ni2389   1.912       .  S
O2385     Ni2390   1.929       .  S
O2385      C2394   1.284       .  A
O2386      C2393   1.283       .  A
O2387     Ni2390   1.929       .  S
O2387      C2392   1.284       .  A
O2388      C2391   1.278       .  A
C2391      C2429   1.460       .  S
C2394      C2405   1.486       .  S
C2395      C2398   1.850   1_565  S
C2395      C2501   1.676       .  S
C2395      C2534   1.671       .  S
C2396      C2558   1.717   1_455  S
C2396      C2573   1.656   1_455  S
C2397      C2654   1.671       .  S
C2397      C2678   1.711       .  S
C2398      C2453   1.675       .  S
C2398      C2477   1.660       .  S
C2399      C2400   1.855       .  S
C2399      C2414   1.661   1_565  S
C2399      C2438   1.716       .  S
C2400      C2606   1.717       .  S
C2400      C2621   1.656       .  S
C2401      C2406   1.396       .  A
C2401      H2411   1.083       .  S
C2402      C2407   1.499       .  S
C2402      C2403   1.410       .  A
C2403      C2404   1.408       .  A
C2403      O2408   1.369       .  S
C2404      C2405   1.408       .  A
C2404      H2409   1.083       .  S
C2406      O2410   1.372       .  S
C2407      C2412   1.383       .  A
O2408      H2424   0.992       .  S
O2410      H2421   0.992       .  S
C2412      C2413   1.386       .  A
C2412      O2417   1.377       .  S
C2413      H2418   1.055       .  S
C2414      C2415   1.408       .  A
C2415      C2416   1.442       .  A
C2415      O2419   1.351       .  S
C2416      H2420   1.083       .  S
O2417      H2422   0.992       .  S
O2419      H2423   0.992   1_655  S
C2425      C2430   1.399       .  A
C2425      H2435   1.083       .  S
C2426      C2431   1.483       .  S
C2426      C2427   1.419   1_545  A
C2427      C2428   1.394       .  A
C2427      O2432   1.375       .  S
C2428      H2433   1.084       .  S
C2429      C2430   1.405       .  A
C2430      O2434   1.372       .  S
C2431      C2436   1.386   1_545  A
O2432      H2448   0.989       .  S
O2434      H2445   0.992       .  S
C2436      C2437   1.402       .  A
C2436      O2441   1.374       .  S
C2437      C2438   1.448       .  A
C2437      H2442   1.060       .  S
C2439      C2440   1.395       .  A
C2439      O2443   1.343       .  S
C2440      H2444   1.084       .  S
O2441      H2446   0.992       .  S
O2443      H2447   0.955       .  S
C2449      C2454   1.398       .  A
C2449      H2459   1.085       .  S
C2450      C2455   1.486       .  S
C2450      C2451   1.392       .  A
C2451      C2452   1.408       .  A
C2451      O2456   1.372       .  S
C2452      H2457   1.073       .  S
C2453      C2454   1.441       .  A
C2454      O2458   1.342   1_545  S
C2455      C2460   1.407       .  A
O2456      H2472   0.992       .  S
O2458      H2469   0.965       .  S
C2460      C2461   1.405       .  A
C2460      O2465   1.370       .  S
C2461      H2466   1.083       .  S
C2462      C2463   1.411   1_545  A
C2463      C2464   1.400       .  A
C2463      O2467   1.372       .  S
C2464      H2468   1.083       .  S
O2465      H2470   0.992       .  S
O2467      H2471   0.992       .  S
C2473      C2478   1.408       .  A
C2473      H2483   1.078       .  S
C2474      C2479   1.487       .  S
C2474      C2475   1.396   1_545  A
C2475      C2476   1.405       .  A
C2475      O2480   1.373       .  S
C2476      C2477   1.433   1_565  A
C2476      H2481   1.049       .  S
C2478      O2482   1.357       .  S
C2479      C2484   1.408   1_545  A
O2480      H2496   0.992       .  S
O2482      H2493   0.994       .  S
C2484      C2485   1.398       .  A
C2484      O2489   1.370       .  S
C2485      C2486   1.406   1_565  A
C2485      H2490   1.083       .  S
C2487      C2488   1.407       .  A
C2487      O2491   1.371       .  S
C2488      H2492   1.084       .  S
O2489      H2494   0.992       .  S
O2491      H2495   0.992       .  S
C2497      C2498   1.381       .  A
C2497      C2502   1.396       .  A
C2497      H2507   1.085       .  S
C2498      C2503   1.479       .  S
C2499      C2500   1.406       .  A
C2499      O2504   1.371       .  S
C2500      H2505   1.022       .  S
C2501      C2502   1.472       .  A
C2502      O2506   1.374       .  S
C2503      C2508   1.408       .  A
O2504      H2520   0.992       .  S
O2506      H2517   0.993       .  S
C2508      C2509   1.394       .  A
C2508      O2513   1.376       .  S
C2509      C2510   1.402       .  A
C2509      H2514   1.084       .  S
C2511      C2512   1.406       .  A
C2511      O2515   1.371       .  S
C2512      H2516   1.083       .  S
O2513      H2518   0.991       .  S
O2515      H2519   0.992       .  S
C2521      C2526   1.400       .  A
C2521      H2531   1.077       .  S
C2522      C2527   1.488       .  S
C2522      C2523   1.412       .  A
C2523      C2524   1.401       .  A
C2523      O2528   1.372       .  S
C2524      C2525   1.404       .  A
C2524      H2529   1.083       .  S
C2526      O2530   1.372       .  S
C2527      C2536   1.386       .  A
O2528      H2544   0.992       .  S
O2530      H2541   0.992       .  S
C2532      C2533   1.410       .  A
C2532      O2537   1.371       .  S
C2533      H2538   1.044       .  S
C2534      C2535   1.456       .  A
C2535      C2536   1.403       .  A
C2535      O2539   1.364       .  S
C2536      H2540   1.084       .  S
O2537      H2542   0.992       .  S
O2539      H2543   0.993       .  S
C2545      C2550   1.398       .  A
C2545      H2555   1.083       .  S
C2546      C2551   1.484       .  S
C2546      C2547   1.409       .  A
C2547      C2548   1.403       .  A
C2547      O2552   1.372       .  S
C2548      H2553   1.083       .  S
C2549      C2550   1.416       .  A
C2550      O2554   1.372       .  S
C2551      C2560   1.385   1_655  A
O2552      H2568   0.992       .  S
O2554      H2565   0.992       .  S
C2556      C2557   1.393       .  A
C2556      O2561   1.375       .  S
C2557      H2562   1.067       .  S
C2558      C2559   1.459   1_655  A
C2559      C2560   1.421       .  A
C2559      O2563   1.348       .  S
C2560      H2564   1.084       .  S
O2561      H2566   0.992       .  S
O2563      H2567   0.992       .  S
C2569      C2574   1.411       .  A
C2569      H2579   1.083       .  S
C2570      C2575   1.498       .  S
C2570      C2571   1.398       .  A
C2571      C2572   1.398       .  A
C2571      O2576   1.371       .  S
C2572      H2577   1.054       .  S
C2573      C2574   1.446       .  A
C2574      O2578   1.373       .  S
C2575      C2584   1.409       .  A
O2576      H2592   0.989       .  S
O2578      H2589   0.993       .  S
C2580      C2581   1.401       .  A
C2580      O2585   1.370       .  S
C2581      H2586   1.084       .  S
C2582      C2583   1.407       .  A
C2583      C2584   1.400       .  A
C2583      O2587   1.372       .  S
C2584      H2588   1.082       .  S
O2585      H2590   0.991       .  S
O2587      H2591   0.992       .  S
C2593      C2594   1.404       .  A
C2593      C2598   1.402       .  A
C2593      H2603   1.081       .  S
C2594      C2599   1.491       .  S
C2594      C2595   1.408       .  A
C2595      C2596   1.403       .  A
C2595      O2600   1.372       .  S
C2596      C2597   1.410       .  A
C2596      H2601   1.083       .  S
C2597      C2598   1.413       .  A
C2598      O2602   1.372       .  S
C2599      C2604   1.380       .  A
C2599      C2608   1.381       .  A
O2600      H2616   0.990       .  S
O2602      H2613   0.992       .  S
C2604      C2605   1.398       .  A
C2604      O2609   1.375       .  S
C2605      C2606   1.424       .  A
C2605      H2610   1.021       .  S
C2606      C2607   1.498       .  A
C2607      C2608   1.419       .  A
C2607      O2611   1.380       .  S
C2608      H2612   1.084       .  S
O2609      H2614   0.992       .  S
O2611      H2615   0.994       .  S
C2617      C2618   1.387       .  A
C2617      C2622   1.406       .  A
C2617      H2627   1.084       .  S
C2618      C2623   1.493       .  S
C2618      C2619   1.392       .  A
C2619      C2620   1.396       .  A
C2619      O2624   1.373       .  S
C2620      C2621   1.425       .  A
C2620      H2625   1.051       .  S
C2621      C2622   1.480       .  A
C2622      O2626   1.383       .  S
C2623      C2628   1.409       .  A
C2623      C2632   1.404       .  A
O2624      H2640   0.992       .  S
O2626      H2637   0.980       .  S
C2628      C2629   1.407       .  A
C2628      O2633   1.376       .  S
C2629      C2630   1.410       .  A
C2629      H2634   1.083       .  S
C2630      C2631   1.410       .  A
C2631      C2632   1.399       .  A
C2631      O2635   1.371       .  S
C2632      H2636   1.079       .  S
O2633      H2638   0.992       .  S
O2635      H2639   0.992       .  S
C2641      C2642   1.404       .  A
C2641      C2646   1.400       .  A
C2641      H2651   1.083       .  S
C2642      C2647   1.481       .  S
C2642      C2643   1.410       .  A
C2643      C2644   1.399       .  A
C2643      O2648   1.371       .  S
C2644      C2645   1.399       .  A
C2644      H2649   1.084       .  S
C2645      C2646   1.407       .  A
C2646      O2650   1.372       .  S
C2647      C2652   1.387       .  A
C2647      C2656   1.388       .  A
O2648      H2664   0.992       .  S
O2650      H2661   0.992       .  S
C2652      C2653   1.400       .  A
C2652      O2657   1.374       .  S
C2653      C2654   1.443       .  A
C2653      H2658   1.052       .  S
C2654      C2655   1.463       .  A
C2655      C2656   1.405       .  A
C2655      O2659   1.377       .  S
C2656      H2660   1.082       .  S
O2657      H2662   0.991       .  S
O2659      H2663   0.976       .  S
C2665      C2666   1.406       .  A
C2665      C2670   1.404       .  A
C2665      H2675   1.079       .  S
C2666      C2671   1.484       .  S
C2666      C2667   1.404       .  A
C2667      C2668   1.397       .  A
C2667      O2672   1.370       .  S
C2668      C2669   1.408       .  A
C2668      H2673   1.083       .  S
C2669      C2670   1.411       .  A
C2670      O2674   1.371       .  S
C2671      C2676   1.395       .  A
C2671      C2680   1.381       .  A
O2672      H2688   0.992       .  S
O2674      H2685   0.992       .  S
C2676      C2677   1.417       .  A
C2676      O2681   1.373       .  S
C2677      C2678   1.454       .  A
C2677      H2682   1.062       .  S
C2678      C2679   1.465       .  A
C2679      C2680   1.404       .  A
C2679      O2683   1.378       .  S
C2680      H2684   1.085       .  S
O2681      H2686   0.992       .  S
O2683      H2687   0.993       .  S
