geometry optimzed in LAMMPS
_audit_creation_date              2020-11-30 
_audit_creation_method            'lammps2cif' 
_symmetry_space_group_name_H-M    'P1' 
_symmetry_Int_Tables_number       1 
_symmetry_cell_setting            triclinic 
loop_ 
_symmetry_equiv_pos_as_xyz 
  x,y,z 
_cell_length_a                    60.09171178 
_cell_length_b                    60.03504533887259 
_cell_length_c                    60.00778880728811 
_cell_angle_alpha                 90.01265145055625 
_cell_angle_beta                  89.99352185328806 
_cell_angle_gamma                 89.9681617879761 
loop_ 
_atom_site_label 
_atom_site_type_symbol 
_atom_site_fract_x 
_atom_site_fract_y 
_atom_site_fract_z 
_atom_site_charge 
C1          C  0.76169628  0.74311422  0.73839565     0.80500
N2          N  0.74347595  0.75627896  0.74048997    -0.77800
C3          C  0.72882469  0.75315761  0.75740233     0.82900
N4          N  0.73241668  0.73641451  0.77217287    -0.77700
C5          C  0.75035583  0.72273746  0.77011953     0.83000
N6          N  0.76496173  0.72618567  0.75309508    -0.79500
C7          C  0.22971796  0.71556835  0.22319650     0.80500
N8          N  0.24378309  0.71207006  0.24050431    -0.77800
C9          C  0.26306199  0.72369109  0.24234987     0.82900
N10         N  0.26819825  0.73924433  0.22665169    -0.77700
C11         C  0.25449188  0.74259612  0.20890590     0.83000
N12         N  0.23527161  0.73077026  0.20743064    -0.79500
C13         C  0.71072233  0.75809217  0.24132154     0.80500
N14         N  0.70791630  0.73969914  0.22854139    -0.77800
C15         C  0.72173858  0.73545921  0.21121210     0.82900
N16         N  0.73918980  0.74936573  0.20735528    -0.77700
C17         C  0.74247533  0.76768366  0.22031450     0.83000
N18         N  0.72798650  0.77200270  0.23713848    -0.79500
C19         C  0.25708238  0.24822562  0.22339218     0.80500
N20         N  0.25888750  0.22834082  0.23409768    -0.77800
C21         C  0.24576064  0.22355247  0.25185906     0.82900
N22         N  0.23090036  0.23897391  0.25909393    -0.77700
C23         C  0.22891439  0.25897738  0.24875295     0.83000
N24         N  0.24186037  0.26331969  0.23066559    -0.79500
C25         C  0.72123707  0.25103604  0.26400982     0.80500
N26         N  0.70711501  0.24708397  0.24678960    -0.77800
C27         C  0.70903019  0.22830331  0.23428905     0.82900
N28         N  0.72570324  0.21373361  0.23873145    -0.77700
C29         C  0.74004968  0.21739010  0.25581216     0.83000
N30         N  0.73780465  0.23615872  0.26824290    -0.79500
C31         C  0.73521913  0.20958473  0.72168010     0.80500
N32         N  0.74942307  0.20755719  0.73918362    -0.77800
C33         C  0.76564458  0.22292196  0.74258656     0.82900
N34         N  0.76759471  0.24029703  0.72833836    -0.77700
C35         C  0.75334808  0.24279234  0.71100273     0.83000
N36         N  0.73722270  0.22731976  0.70778510    -0.79500
C37         C  0.22920791  0.75104891  0.76054912     0.80500
N38         N  0.24772763  0.73838043  0.76345112    -0.77800
C39         C  0.25194308  0.72082482  0.74977457     0.82900
N40         N  0.23730665  0.71588747  0.73326494    -0.77700
C41         C  0.21876212  0.72842831  0.73005070     0.83000
N42         N  0.21504702  0.74615831  0.74358895    -0.79500
O43         O  0.03069688  0.02932175  0.98551620    -0.88100
C44         C  0.07270598  0.02112043  0.03719356     0.88000
Mg45       Mg  0.00713954  0.05561138  0.98533940     1.58100
O46         O  0.02822702  0.98307854  0.03668483    -0.87800
O47         O  0.02951757  0.99287057  0.98471950    -0.75100
C48         C  0.96094818  0.05582589  0.08724482     0.93000
O49         O  0.05261256  0.06651992  0.01660566    -0.74900
O50         O  0.96389137  0.06961730  0.07131240    -0.82400
Mg51       Mg  0.06434781  0.03856633  0.99295311     1.58000
C52         C  0.99312986  0.96871663  0.09343133     0.92900
O53         O  0.07975203  0.01229146  0.96862393    -0.80700
H54         H  0.01085660  0.95950184  0.02085604    -0.06100
C55         C  0.02084589  0.03627681  0.07746188     0.87900
O56         O  0.97959285  0.03231330  0.99789271    -0.75200
O57         O  0.06311488  0.01530350  0.01989970    -0.88000
O58         O  0.01332552  0.96776419  0.08679020    -0.80800
C59         C  0.08076301  0.96113835  0.05674612     0.93100
C60         C  0.08587885  0.99192690  0.96965858     0.92900
Mg61       Mg  0.98118655  0.01009122  0.06093588     1.58000
O62         O  0.96780949  0.03580222  0.08566680    -0.80700
O63         O  0.99178174  0.98196532  0.03738766    -0.75000
O64         O  0.07871271  0.96797797  0.03683491    -0.80800
O65         O  0.06573179  0.06500125  0.96552813    -0.82500
O66         O  0.96511000  0.08275464  0.01734517    -0.80800
C67         C  0.01047527  0.97404473  0.03147837     0.87300
O68         O  0.98115847  0.03358741  0.03441580    -0.88000
O69         O  0.01500376  0.01857898  0.06866450    -0.88100
O70         O  0.01439941  0.05509063  0.07017236    -0.75100
Mg71       Mg  0.05364652  0.98175243  0.01204424     1.58000
O72         O  0.06564087  0.96480768  0.07122410    -0.82500
H73         H  0.01325294  0.01258262  0.96262598    -0.06200
O74         O  0.01618985  0.06489546  0.01862458    -0.87800
H75         H  0.03383488  0.08831787  0.03440322    -0.06100
H76         H  0.95764050  0.01655619  0.01815515    -0.06200
C77         C  0.03402235  0.07395006  0.02351201     0.87300
C78         C  0.02432876  0.01177760  0.97679814     0.87900
C79         C  0.97200098  0.02733575  0.01702699     0.88000
H80         H  0.03224142  0.03575197  0.09140867    -0.06200
O81         O  0.06588606  0.01523787  0.05636650    -0.75200
Mg82       Mg  0.99005424  0.06718847  0.04311145     1.58000
H83         H  0.08694619  0.03206566  0.03599202    -0.06200
C84         C  0.05210753  0.08102324  0.96250020     0.92900
O85         O  0.98154251  0.08215480  0.98401244    -0.82500
C86         C  0.96592023  0.08841786  0.99679477     0.93000
O87         O  0.07971084  0.97935580  0.98552757    -0.82500
Mg88       Mg  0.03869774  0.99185450  0.06986136     1.58200
O89         O  0.03240619  0.08015631  0.97026255    -0.80800
O90         O  0.98027175  0.98460857  0.08802898    -0.82500
C91         C  0.10126135  0.27157928  0.91631668     0.03400
C92         C  0.09769438  0.24948247  0.92317387    -0.12700
C93         C  0.10446565  0.23158587  0.90967085     0.00900
C94         C  0.11507470  0.23597692  0.88933395    -0.11300
C95         C  0.11897014  0.25794450  0.88239069     0.03400
C96         C  0.11225941  0.27572779  0.89603687    -0.10700
H97         H  0.08859730  0.24623484  0.93842890     0.09000
H98         H  0.11999937  0.22224320  0.87867625     0.06500
H99         H  0.11472461  0.29272004  0.89046875     0.06400
C100        C  0.90642481  0.09831579  0.27905736     0.03400
C101        C  0.88728532  0.11161474  0.28167627    -0.12700
C102        C  0.87462299  0.11791826  0.26301105     0.00900
C103        C  0.88111447  0.11087022  0.24167776    -0.11300
C104        C  0.89987319  0.09729067  0.23885836     0.03400
C105        C  0.91225921  0.09089444  0.25759242    -0.10700
H106        H  0.88248710  0.11741205  0.29809166     0.09000
H107        H  0.87170831  0.11621928  0.22721907     0.06500
H108        H  0.92650395  0.08003820  0.25539165     0.06400
C109        C  0.27178428  0.90673924  0.08691264     0.03400
C110        C  0.27688555  0.88742396  0.09905830    -0.12700
C111        C  0.25978679  0.87483926  0.10873930     0.00900
C112        C  0.23762364  0.88206306  0.10687951    -0.11300
C113        C  0.23247747  0.90174441  0.09537134     0.03400
C114        C  0.24964431  0.91386906  0.08528684    -0.10700
H115        H  0.29398411  0.88180739  0.10033047     0.09000
H116        H  0.22440401  0.87235146  0.11440107     0.06500
H117        H  0.24573922  0.92871416  0.07577410     0.06400
O118        O  0.95161384  0.48589355  0.44622999    -0.88100
C119        C  0.95327572  0.53962944  0.40593853     0.88000
Mg120      Mg  0.92649126  0.48283260  0.47103129     1.58100
O121        O  0.99350258  0.54101044  0.44860131    -0.87800
O122        O  0.98799814  0.48830798  0.44553587    -0.75100
C123        C  0.91966697  0.58188432  0.52030862     0.93000
O124        O  0.91080816  0.51460922  0.42670398    -0.74900
O125        O  0.90702913  0.56521047  0.51680866    -0.82400
Mg126      Mg  0.93998885  0.49388382  0.41308088     1.58000
C127        C  0.00314549  0.59932074  0.48465141     0.92900
O128        O  0.96729467  0.47261221  0.39535539    -0.80700
H129        H  0.01934736  0.52706172  0.46427589    -0.06100
C130        C  0.93763509  0.57681866  0.45980164     0.87900
O131        O  0.94966338  0.49632468  0.49826013    -0.75200
O132        O  0.96103784  0.52256083  0.41448310    -0.88000
O133        O  0.00467209  0.59252616  0.46451502    -0.80800
C134        C  0.01021095  0.56503582  0.39588997     0.93100
C135        C  0.98715167  0.47553120  0.38827806     0.92900
Mg136      Mg  0.96681064  0.56126702  0.49779252     1.58000
O137        O  0.93960991  0.58268529  0.51328202    -0.80700
O138        O  0.99652601  0.54093312  0.48499146    -0.75000
O139        O  0.00566889  0.54439475  0.39754711    -0.80800
O140        O  0.91539474  0.46463489  0.41162517    -0.82500
O141        O  0.89746487  0.51157868  0.51394819    -0.80800
C142        C  0.00391979  0.53622353  0.46572197     0.87300
O143        O  0.94565651  0.53264650  0.49774961    -0.88000
O144        O  0.95612050  0.56923703  0.46467333    -0.88100
O145        O  0.91978313  0.56759247  0.46629560    -0.75100
Mg146      Mg  0.99556927  0.51738914  0.42202904     1.58000
O147        O  0.00630908  0.57842468  0.41186066    -0.82500
H148        H  0.97120123  0.46403358  0.46194898    -0.06200
O149        O  0.91451090  0.51551153  0.46300066    -0.87800
H150        H  0.88868334  0.52958437  0.44741148    -0.06100
H151        H  0.96471945  0.51713432  0.52021327    -0.06200
C152        C  0.90392144  0.52010361  0.44594751     0.87300
C153        C  0.97016435  0.47858358  0.45139007     0.87900
C154        C  0.95353484  0.51556823  0.50619386     0.88000
H155        H  0.93663021  0.59130294  0.44911540    -0.06200
O156        O  0.95780698  0.55894269  0.41332477    -0.75200
Mg157      Mg  0.91105112  0.53874378  0.48980291     1.58000
H158        H  0.94176389  0.53803689  0.39216974    -0.06200
C159        C  0.90073059  0.46007035  0.42628299     0.92900
O160        O  0.90021249  0.47872644  0.49715655    -0.82500
C161        C  0.89249980  0.49094349  0.51262791     0.93000
O162        O  0.99884836  0.49205585  0.39450824    -0.82500
Mg163      Mg  0.98120206  0.57361242  0.43988121     1.58200
O164        O  0.90280214  0.46686817  0.44626071    -0.80800
O165        O  0.98914606  0.59118929  0.49826720    -0.82500
C166        C  0.70752826  0.41633089  0.38562680     0.03400
C167        C  0.72912413  0.42074918  0.39348030    -0.12700
C168        C  0.74715493  0.40754501  0.38669518     0.00900
C169        C  0.74353526  0.38982155  0.37199692    -0.11300
C170        C  0.72206870  0.38502637  0.36430334     0.03400
C171        C  0.70405460  0.39819998  0.37122399    -0.10700
H172        H  0.73192130  0.43445353  0.40490219     0.09000
H173        H  0.75750522  0.37990625  0.36628229     0.06500
H174        H  0.68748173  0.39461581  0.36507093     0.06400
C175        C  0.05526570  0.60859806  0.20287821     0.03400
C176        C  0.07372447  0.62268204  0.19960317    -0.12700
C177        C  0.08515027  0.63161462  0.21800970     0.00900
C178        C  0.07835032  0.62604685  0.23962227    -0.11300
C179        C  0.06038089  0.61168782  0.24300012     0.03400
C180        C  0.04891228  0.60303614  0.22468626    -0.10700
H181        H  0.07920935  0.62662839  0.18286183     0.09000
H182        H  0.08738882  0.63250199  0.25386676     0.06500
H183        H  0.03542294  0.59137840  0.22745523     0.06400
C184        C  0.87816704  0.77321352  0.57099226     0.03400
C185        C  0.88478351  0.75153205  0.56488626    -0.12700
C186        C  0.87861806  0.73306317  0.57782396     0.00900
C187        C  0.86696771  0.73647151  0.59768151    -0.11300
C188        C  0.86039730  0.75783725  0.60422810     0.03400
C189        C  0.86577515  0.77622338  0.59074557    -0.10700
H190        H  0.89465454  0.74899172  0.54999151     0.09000
H191        H  0.86267629  0.72230357  0.60802982     0.06500
H192        H  0.86053224  0.79276730  0.59570856     0.06400
O193        O  0.00068974  0.91667102  0.44809462    -0.88100
C194        C  0.97683187  0.97982945  0.44527205     0.88000
Mg195      Mg  0.01333171  0.90322069  0.47833523     1.58100
O196        O  0.02950806  0.97336260  0.42085296    -0.87800
O197        O  0.01300680  0.92394196  0.41448879    -0.75100
C198        C  0.08023579  0.98141985  0.51867647     0.93000
O199        O  0.97483937  0.94431453  0.48585920    -0.74900
O200        O  0.06865422  0.96535344  0.52626750    -0.82400
Mg201      Mg  0.96840429  0.93202391  0.45002530     1.58000
C202        C  0.08037502  0.01656515  0.43312784     0.92900
O203        O  0.95867064  0.91925040  0.41458041    -0.80700
H204        H  0.04893484  0.95852895  0.39822372    -0.06100
C205        C  0.02907257  0.99726954  0.48378199     0.87900
O206        O  0.04920648  0.91071754  0.46782653    -0.75200
O207        O  0.98324607  0.96202332  0.43709572    -0.88000
O208        O  0.06062714  0.01702828  0.42527239    -0.80800
C209        C  0.99454005  0.01385679  0.39326611     0.93100
C210        C  0.95983325  0.92658575  0.39463316     0.92900
Mg211      Mg  0.06956929  0.97429133  0.46422172     1.58000
O212        O  0.08002059  0.98659956  0.49817472    -0.80700
O213        O  0.06330554  0.96227692  0.42857947    -0.75000
O214        O  0.98845100  0.99349818  0.39394258    -0.80800
O215        O  0.95212051  0.90110406  0.46560959    -0.82500
O216        O  0.05017160  0.91491973  0.52226353    -0.80800
C217        C  0.04730118  0.96482738  0.41504034     0.87300
O218        O  0.05506055  0.94519678  0.47796700    -0.88000
O219        O  0.03799837  0.99085592  0.46634924    -0.88100
O220        O  0.02673614  0.98452370  0.50051789    -0.75100
Mg221      Mg  0.00082691  0.95924834  0.40613096     1.58000
O222        O  0.01059353  0.02089482  0.40515963    -0.82500
H223        H  0.01719775  0.89415865  0.42991647    -0.06200
O224        O  0.00923759  0.93517543  0.49402302    -0.87800
H225        H  0.98907881  0.95001758  0.51602694    -0.06100
H226        H  0.07897632  0.92629395  0.46456968    -0.06200
C227        C  0.99106128  0.94321955  0.49943059     0.87300
C228        C  0.01027176  0.91076457  0.43082745     0.87900
C229        C  0.06192132  0.92740848  0.47020762     0.88000
H230        H  0.02243860  0.01401697  0.48455833    -0.06200
O231        O  0.98959936  0.99662699  0.44711506    -0.75200
Mg232      Mg  0.03838614  0.94918744  0.50946896     1.58000
H233        H  0.95994469  0.98098066  0.45156116    -0.06200
C234        C  0.95896612  0.88971583  0.48218566     0.92900
O235        O  0.02713923  0.88864833  0.50970060    -0.82500
C236        C  0.04263426  0.89507516  0.52256312     0.93000
O237        O  0.97169519  0.94338238  0.38967738    -0.82500
Mg238      Mg  0.02545041  0.00521850  0.43633489     1.58200
O239        O  0.97895932  0.89106032  0.48908072    -0.80800
O240        O  0.08568169  0.00436419  0.44955773    -0.82500
C241        C  0.09498815  0.71174598  0.56703873     0.03400
C242        C  0.08867513  0.73401580  0.56369361    -0.12700
C243        C  0.09902328  0.75127347  0.57550540     0.00900
C244        C  0.11492870  0.74609428  0.59165657    -0.11300
C245        C  0.12157949  0.72401398  0.59521763     0.03400
C246        C  0.11165222  0.70682941  0.58278222    -0.10700
H247        H  0.07568255  0.73794574  0.55179627     0.09000
H248        H  0.12234396  0.75937298  0.60138871     0.06500
H249        H  0.11696754  0.68976674  0.58527899     0.06400
C250        C  0.26599508  0.05695234  0.37020409     0.03400
C251        C  0.24435824  0.05238951  0.37779831    -0.12700
C252        C  0.22605844  0.06433763  0.36964519     0.00900
C253        C  0.22940414  0.08043556  0.35310904    -0.11300
C254        C  0.25088921  0.08539090  0.34547284     0.03400
C255        C  0.26920537  0.07364510  0.35406102    -0.10700
H256        H  0.24184124  0.03994689  0.39064531     0.09000
H257        H  0.21529980  0.08959021  0.34654221     0.06500
H258        H  0.28589443  0.07814548  0.34892535     0.06400
C259        C  0.91457000  0.87844048  0.20914125     0.03400
C260        C  0.89628712  0.86535359  0.20272635    -0.12700
C261        C  0.88303207  0.85499698  0.21891414     0.00900
C262        C  0.88778229  0.85820734  0.24157638    -0.11300
C263        C  0.90577225  0.87146628  0.24813102     0.03400
C264        C  0.91920693  0.88148183  0.23186123    -0.10700
H265        H  0.89241726  0.86321724  0.18521500     0.09000
H266        H  0.87736167  0.85048548  0.25413986     0.06500
H267        H  0.93311795  0.89182490  0.23687537     0.06400
O268        O  0.48193885  0.43863088  0.94646156    -0.88100
C269        C  0.53836213  0.40240126  0.95227712     0.88000
Mg270      Mg  0.47881177  0.46336522  0.92127375     1.58100
O271        O  0.53281313  0.44484269  0.99265419    -0.87800
O272        O  0.48132682  0.43712949  0.98292408    -0.75100
C273        C  0.57513444  0.51776178  0.92194901     0.93000
O274        O  0.51482677  0.42154212  0.90770312    -0.74900
O275        O  0.55913088  0.51461842  0.90834859    -0.82400
Mg276      Mg  0.49315385  0.40634570  0.93534820     1.58000
C277        C  0.58623050  0.48525907  0.00804565     0.92900
O278        O  0.47114884  0.38725586  0.96108515    -0.80700
H279        H  0.51521147  0.45914278  0.01706623    -0.06100
C280        C  0.57184275  0.45855454  0.93994231     0.87900
O281        O  0.48844339  0.49126811  0.94545586    -0.75200
O282        O  0.52013357  0.40963248  0.95853159    -0.88000
O283        O  0.58146732  0.46455802  0.00784179    -0.80800
C284        C  0.55991221  0.39487564  0.01207216     0.93100
C285        C  0.47368105  0.37972219  0.98085332     0.92900
Mg286      Mg  0.55130426  0.49529086  0.96773824     1.58000
O287        O  0.57412707  0.51070567  0.94186937    -0.80700
O288        O  0.52929536  0.48110647  0.99557975    -0.75000
O289        O  0.53991312  0.39398417  0.00519916    -0.80800
O290        O  0.46587491  0.40304755  0.90867832    -0.82500
O291        O  0.50663512  0.50835845  0.89486804    -0.80800
C292        C  0.52561522  0.46145225  0.00254870     0.87300
O293        O  0.52485497  0.49316017  0.94421024    -0.88000
O294        O  0.56246255  0.46292004  0.95775329    -0.88100
O295        O  0.56371939  0.46439054  0.92130814    -0.75100
Mg296      Mg  0.51176418  0.41616644  0.99264732     1.58000
O297        O  0.57201841  0.41193923  0.00888621    -0.82500
H298        H  0.45725660  0.45196098  0.96441008    -0.06200
O299        O  0.51270312  0.45774044  0.91164524    -0.87800
H300        H  0.52961833  0.44352039  0.88671779    -0.06100
H301        H  0.50650374  0.51456434  0.96193054    -0.06200
C302        C  0.51926786  0.44119703  0.90128554     0.87300
C303        C  0.47269763  0.44270568  0.96442274     0.87900
C304        C  0.50672875  0.50047949  0.95071171     0.88000
H305        H  0.58701067  0.44885827  0.94020366    -0.06200
O306        O  0.55657493  0.41110317  0.95858307    -0.75200
Mg307      Mg  0.53423079  0.48599311  0.91022401     1.58000
H308        H  0.53880795  0.38860079  0.94065911    -0.06200
C309        C  0.46103493  0.41746665  0.89384889     0.92900
O310        O  0.47482909  0.48942753  0.89494830    -0.82500
C311        C  0.48643063  0.50592027  0.88867898     0.93000
O312        O  0.48926113  0.38635483  0.99353553    -0.82500
Mg313      Mg  0.56688587  0.43878908  0.98307225     1.58200
O314        O  0.46625920  0.43784428  0.89637795    -0.80800
O315        O  0.57858619  0.49861926  0.99348738    -0.82500
C316        C  0.41063035  0.37968965  0.70003308     0.03400
C317        C  0.39204573  0.36575012  0.69713949    -0.12700
C318        C  0.38022831  0.35795853  0.71578615     0.00900
C319        C  0.38651035  0.36492638  0.73718286    -0.11300
C320        C  0.40453906  0.37935626  0.74026359     0.03400
C321        C  0.41662955  0.38657057  0.72161060    -0.10700
H322        H  0.38726424  0.36042593  0.68056261     0.09000
H323        H  0.37749462  0.35875882  0.75156074     0.06500
H324        H  0.43075091  0.39757225  0.72386916     0.06400
C325        C  0.60225068  0.20508985  0.06042500     0.03400
C326        C  0.61523683  0.20115728  0.07945191    -0.12700
C327        C  0.62569031  0.21894480  0.09032726     0.00900
C328        C  0.62377844  0.24050859  0.08177028    -0.11300
C329        C  0.61059902  0.24478607  0.06298272     0.03400
C330        C  0.59973742  0.22694137  0.05241509    -0.10700
H331        H  0.61663077  0.18445316  0.08616018     0.09000
H332        H  0.63188398  0.25416379  0.09037340     0.06500
H333        H  0.58881498  0.23005110  0.03839390     0.06400
C334        C  0.76820123  0.55658045  0.89027214     0.03400
C335        C  0.74561228  0.55044749  0.89077227    -0.12700
C336        C  0.72940644  0.56387096  0.88056709     0.00900
C337        C  0.73593452  0.58342637  0.86972398    -0.11300
C338        C  0.75836930  0.58951235  0.86869040     0.03400
C339        C  0.77452789  0.57607040  0.87888003    -0.10700
H340        H  0.74060008  0.53544999  0.89946570     0.09000
H341        H  0.72349131  0.59393668  0.86191643     0.06500
H342        H  0.79187808  0.58094035  0.87822504     0.06400
O343        O  0.94298300  0.46651019  0.06818814    -0.88100
C344        C  0.93560110  0.48861373  0.00513967     0.88000
Mg345      Mg  0.97454061  0.45568679  0.08020332     1.58100
O346        O  0.91412730  0.43525274  0.01469731    -0.87800
O347        O  0.90947242  0.45284663  0.06386832    -0.75100
C348        C  0.01356646  0.38560930  0.00323960     0.93000
O349        O  0.97783103  0.49284122  0.03786899    -0.74900
O350        O  0.02137349  0.39919416  0.01762519    -0.82400
Mg351      Mg  0.94250798  0.49843507  0.05213583     1.58000
C352        C  0.92528803  0.38369936  0.97296133     0.92900
O353        O  0.90752959  0.50735568  0.06654886    -0.80700
H354        H  0.89381162  0.41548089  0.03211823    -0.06100
C355        C  0.97576002  0.43662060  0.98678370     0.87900
O356        O  0.96528086  0.41911645  0.07456585    -0.75200
O357        O  0.92851417  0.48244492  0.02350053    -0.88000
O358        O  0.91707719  0.40326547  0.97197963    -0.80800
C359        C  0.88295486  0.46813990  0.97496896     0.93100
C360        C  0.88724767  0.50483992  0.06069948     0.92900
Mg361      Mg  0.95920067  0.39640182  0.01230761     1.58000
O362        O  0.99296196  0.38537926  0.99827166    -0.80700
O363        O  0.92438263  0.40232264  0.02654374    -0.75000
O364        O  0.88443841  0.47466692  0.99511647    -0.80800
O365        O  0.95862812  0.51584204  0.08179814    -0.82500
O366        O  0.01957401  0.42000628  0.06787491    -0.80800
C367        C  0.90993278  0.41758482  0.02440020     0.87300
O368        O  0.97429056  0.41214581  0.03995703    -0.88000
O369        O  0.95903398  0.42759078  0.99468128    -0.88100
O370        O  0.99322625  0.43975646  0.99830490    -0.75100
Mg371      Mg  0.89867513  0.46357448  0.02875321     1.58000
O372        O  0.89490510  0.45228984  0.96747204    -0.82500
H373        H  0.92710476  0.45034244  0.09260986    -0.06200
O374        O  0.98847731  0.45912870  0.04732355    -0.87800
H375        H  0.00813279  0.47989320  0.03024792    -0.06100
H376        H  0.96289338  0.38850966  0.06044532    -0.06200
C377        C  0.99225778  0.47729707  0.03832708     0.87300
C378        C  0.92657444  0.45661936  0.07571432     0.87900
C379        C  0.96764945  0.40575357  0.05836005     0.88000
H380        H  0.97528797  0.44257806  0.96977564    -0.06200
O381        O  0.93739163  0.47533308  0.98871101    -0.75200
Mg382      Mg  0.00459564  0.42990994  0.03356890     1.58000
H383        H  0.94105003  0.50567766  0.00319183    -0.06200
C384        C  0.97632207  0.51052825  0.09216869     0.92900
O385        O  0.00695724  0.44355339  0.09361851    -0.82500
C386        C  0.01997662  0.42799765  0.08758380     0.93000
O387        O  0.88149653  0.49225267  0.04473134    -0.82500
Mg388      Mg  0.92757723  0.43889619  0.98185443     1.58200
O389        O  0.98458353  0.49103309  0.09062316    -0.80800
O390        O  0.94265205  0.37918407  0.98410178    -0.82500
C391        C  0.70075254  0.56161309  0.10296357     0.03400
C392        C  0.69732640  0.58122235  0.11531957    -0.12700
C393        C  0.71560928  0.59291304  0.12398005     0.00900
C394        C  0.73718906  0.58491049  0.12043082    -0.11300
C395        C  0.74075853  0.56522894  0.10846893     0.03400
C396        C  0.72246137  0.55362567  0.09972764    -0.10700
H397        H  0.68063299  0.58766643  0.11760845     0.09000
H398        H  0.75128683  0.59433687  0.12661251     0.06500
H399        H  0.72514098  0.53869932  0.08991481     0.06400
C400        C  0.06615039  0.38167219  0.27322899     0.03400
C401        C  0.06190261  0.38605845  0.25064070    -0.12700
C402        C  0.07404374  0.37518142  0.23391623     0.00900
C403        C  0.09013727  0.35944419  0.23986208    -0.11300
C404        C  0.09452597  0.35470757  0.26234011     0.03400
C405        C  0.08219544  0.36561320  0.27902219    -0.10700
H406        H  0.04946560  0.39832954  0.24608830     0.09000
H407        H  0.09957609  0.35111575  0.22690259     0.06500
H408        H  0.08546947  0.36207040  0.29641877     0.06400
C409        C  0.88645575  0.20283549  0.90735369     0.03400
C410        C  0.87444995  0.19828228  0.88778338    -0.12700
C411        C  0.86632410  0.21588548  0.87470455     0.00900
C412        C  0.87032305  0.23791347  0.88111934    -0.11300
C413        C  0.88170843  0.24253875  0.90080175     0.03400
C414        C  0.88963763  0.22501193  0.91395965    -0.10700
H415        H  0.87173039  0.18120913  0.88259290     0.09000
H416        H  0.86438123  0.25152552  0.87083111     0.06500
H417        H  0.89836628  0.22865774  0.92934504     0.06400
O418        O  0.49932621  0.02967281  0.94715465    -0.88100
C419        C  0.44656994  0.07050210  0.95575327     0.88000
Mg420      Mg  0.50128706  0.00717763  0.91953278     1.58100
O421        O  0.44765101  0.02492670  0.99264554    -0.87800
O422        O  0.49955482  0.02829716  0.98371098    -0.75100
C423        C  0.40216289  0.95859555  0.91566601     0.93000
O424        O  0.46801446  0.05220992  0.91032193    -0.74900
O425        O  0.41808240  0.96201440  0.90205435    -0.82400
Mg426      Mg  0.49082650  0.06361205  0.93895947     1.58000
C427        C  0.39140836  0.98748413  0.00231862     0.92900
O428        O  0.51416243  0.07876075  0.96601597    -0.80700
H429        H  0.46390363  0.00714749  0.01562928    -0.06100
C430        C  0.40912798  0.01743873  0.93750867     0.87900
O431        O  0.49009541  0.97776817  0.94107706    -0.75200
O432        O  0.46378545  0.06092554  0.96167281    -0.88000
O433        O  0.39739960  0.00773736  0.00459255    -0.80800
C434        C  0.42402132  0.07620851  0.01413165     0.93100
C435        C  0.51256162  0.08489441  0.98634391     0.92900
Mg436      Mg  0.42697031  0.97783563  0.96254672     1.58000
O437        O  0.40362828  0.96477123  0.93589476    -0.80700
O438        O  0.44926066  0.98841507  0.99163744    -0.75000
O439        O  0.44445883  0.07491750  0.00872522    -0.80800
O440        O  0.51813805  0.06727596  0.91281007    -0.82500
O441        O  0.47138144  0.96612213  0.88899659    -0.80800
C442        C  0.45368682  0.00697437  0.00080092     0.87300
O443        O  0.45372339  0.97912507  0.93948438    -0.88000
O444        O  0.41826707  0.01163141  0.95501863    -0.88100
O445        O  0.41664053  0.01171309  0.91857416    -0.75100
Mg446      Mg  0.47112032  0.05124569  0.99517092     1.58000
O447        O  0.41054544  0.06036842  0.00982184    -0.82500
H448        H  0.52223560  0.01253847  0.96420946    -0.06200
O449        O  0.46794231  0.01565146  0.91006338    -0.87800
H450        H  0.45156749  0.03367104  0.88733754    -0.06100
H451        H  0.46993567  0.95458601  0.95512445    -0.06200
C452        C  0.46226369  0.03367854  0.90183968     0.87300
C453        C  0.50780915  0.02328916  0.96484276     0.87900
C454        C  0.47105297  0.96966255  0.94533696     0.88000
H455        H  0.39466225  0.02813154  0.93832053    -0.06200
O456        O  0.42744841  0.06293810  0.96055709    -0.75200
Mg457      Mg  0.44482401  0.98900131  0.90604269     1.58000
H458        H  0.44783052  0.08533689  0.94559222    -0.06200
C459        C  0.52083759  0.05439326  0.89619197     0.92900
O460        O  0.50424377  0.98308745  0.89091722    -0.82500
C461        C  0.49184095  0.96774824  0.88328800     0.93000
O462        O  0.49657419  0.07845194  0.99864729    -0.82500
Mg463      Mg  0.41454158  0.03430931  0.98232755     1.58200
O464        O  0.51442525  0.03423051  0.89687683    -0.80800
O465        O  0.39911756  0.97536761  0.98679526    -0.82500
C466        C  0.56795099  0.09190841  0.70268871     0.03400
C467        C  0.56033077  0.08863242  0.72459315    -0.12700
C468        C  0.57193784  0.09775096  0.74267002     0.00900
C469        C  0.59058773  0.11109136  0.73879802    -0.11300
C470        C  0.59823821  0.11469254  0.71709851     0.03400
C471        C  0.58693028  0.10512096  0.69900633    -0.10700
H472        H  0.54568923  0.07853672  0.72761354     0.09000
H473        H  0.59949369  0.11828781  0.75277321     0.06500
H474        H  0.59301803  0.10773047  0.68220930     0.06400
C475        C  0.37783623  0.26537409  0.05767905     0.03400
C476        C  0.38190903  0.24278987  0.05293544    -0.12700
C477        C  0.37076555  0.22598847  0.06469754     0.00900
C478        C  0.35573413  0.23169424  0.08150738    -0.11300
C479        C  0.35190172  0.25408894  0.08682753     0.03400
C480        C  0.36293762  0.27092047  0.07492182    -0.10700
H481        H  0.39402893  0.23824905  0.04035043     0.09000
H482        H  0.34740761  0.21866905  0.09084116     0.06500
H483        H  0.35995651  0.28823101  0.07909421     0.06400
C484        C  0.20650366  0.91673421  0.88101355     0.03400
C485        C  0.20232306  0.89965968  0.86546791    -0.12700
C486        C  0.22000593  0.88913871  0.85433956     0.00900
C487        C  0.24191347  0.89538664  0.85925407    -0.11300
C488        C  0.24643879  0.91197625  0.87497595     0.03400
C489        C  0.22864671  0.92309867  0.88531285    -0.10700
H490        H  0.18536990  0.89451588  0.86209658     0.09000
H491        H  0.25560618  0.88698200  0.85102004     0.06500
H492        H  0.23205525  0.93641305  0.89701352     0.06400
O493        O  0.55887494  0.53670110  0.50417678    -0.88100
C494        C  0.49615138  0.53395320  0.47996153     0.88000
Mg495      Mg  0.57458892  0.50863265  0.51823802     1.58100
O496        O  0.50109823  0.55923465  0.53238235    -0.87800
O497        O  0.54986048  0.56997237  0.51577480    -0.75100
C498        C  0.49990621  0.46229456  0.58600613     0.93000
O499        O  0.53483798  0.49600198  0.47973703    -0.74900
O500        O  0.51648917  0.45617348  0.57426629    -0.82400
Mg501      Mg  0.54401319  0.53245093  0.47199431     1.58000
C502        C  0.45792602  0.54572019  0.58290321     0.92900
O503        O  0.55353247  0.56830195  0.46084199    -0.80700
H504        H  0.51340868  0.58342641  0.55168262    -0.06100
C505        C  0.48159883  0.49475279  0.53303322     0.87900
O506        O  0.56516562  0.51977806  0.55352071    -0.75200
O507        O  0.51322657  0.54359110  0.48631017    -0.88000
O508        O  0.45808323  0.55340640  0.56309140    -0.80800
C509        C  0.45951702  0.58446263  0.49752905     0.93100
C510        C  0.54488837  0.58774133  0.46166167     0.92900
Mg511      Mg  0.50167726  0.51696011  0.57374462     1.58000
O512        O  0.49236536  0.48208432  0.58514935    -0.80700
O513        O  0.51092348  0.55336964  0.56693582    -0.75000
O514        O  0.47982265  0.58500316  0.49160065    -0.80800
O515        O  0.57618438  0.51907146  0.45656800    -0.82500
O516        O  0.56685501  0.46540537  0.55695092    -0.80800
C517        C  0.50839461  0.56617745  0.55032390     0.87300
O518        O  0.53214567  0.50576296  0.55999131    -0.88000
O519        O  0.48627320  0.51284375  0.54175275    -0.88100
O520        O  0.49578591  0.47911025  0.53134778    -0.75100
Mg521      Mg  0.51417260  0.57496574  0.50369482     1.58000
O522        O  0.45269032  0.57163727  0.51294778    -0.82500
H523        H  0.58070127  0.55673419  0.51932086    -0.06200
O524        O  0.54448825  0.48970767  0.51444585    -0.87800
H525        H  0.53174884  0.46593315  0.49490149    -0.06100
H526        H  0.54919767  0.52250476  0.58316772    -0.06200
C527        C  0.53705960  0.48308089  0.49638827     0.87300
C528        C  0.56400497  0.55456784  0.51297124     0.87900
C529        C  0.54885068  0.51593698  0.56639486     0.88000
H530        H  0.46516570  0.49241002  0.52607459    -0.06200
O531        O  0.47956236  0.53086585  0.49277040    -0.75200
Mg532      Mg  0.53160004  0.47376049  0.54387606     1.58000
H533        H  0.49557563  0.52736648  0.46317347    -0.06200
C534        C  0.58904161  0.50395047  0.46408651     0.92900
O535        O  0.59204224  0.48006750  0.53390010    -0.82500
C536        C  0.58689716  0.46797923  0.55044754     0.93000
O537        O  0.52854181  0.59220401  0.47425766    -0.82500
Mg538      Mg  0.47024470  0.54178253  0.52836666     1.58200
O539        O  0.58826911  0.49774568  0.48437914    -0.80800
O540        O  0.46998056  0.52939066  0.58881922    -0.82500
C541        C  0.59773465  0.77165794  0.41157146     0.03400
C542        C  0.61079787  0.77621955  0.39274807    -0.12700
C543        C  0.62070783  0.75874239  0.38089556     0.00900
C544        C  0.61814579  0.73674971  0.38827359    -0.11300
C545        C  0.60549953  0.73205261  0.40729820     0.03400
C546        C  0.59548908  0.74961242  0.41899154    -0.10700
H547        H  0.61230267  0.79315887  0.38668236     0.09000
H548        H  0.62549004  0.72322628  0.37880839     0.06500
H549        H  0.58504850  0.74604287  0.43327943     0.06400
C550        C  0.41469826  0.59767271  0.76841533     0.03400
C551        C  0.39789457  0.61306303  0.77361891    -0.12700
C552        C  0.38669899  0.62430621  0.75650835     0.00900
C553        C  0.39232352  0.62018182  0.73423481    -0.11300
C554        C  0.40895814  0.60474332  0.72890197     0.03400
C555        C  0.41985466  0.59327304  0.74607769    -0.10700
H556        H  0.39338987  0.61607406  0.79084880     0.09000
H557        H  0.38350280  0.62879499  0.72103273     0.06500
H558        H  0.43229267  0.58081033  0.74208101     0.06400
C559        C  0.77076015  0.41251611  0.59682943     0.03400
C560        C  0.74860845  0.41910561  0.59328025    -0.12700
C561        C  0.73093161  0.40690871  0.60251592     0.00900
C562        C  0.73558444  0.38832748  0.61574032    -0.11300
C563        C  0.75758168  0.38219914  0.62021699     0.03400
C564        C  0.77518256  0.39414031  0.61063094    -0.10700
H565        H  0.74511119  0.43353359  0.58300265     0.09000
H566        H  0.72207131  0.37830629  0.62227126     0.06500
H567        H  0.79219313  0.38890483  0.61357651     0.06400
O568        O  0.44758943  0.99676723  0.52620570    -0.88100
C569        C  0.45579139  0.94397470  0.56772006     0.88000
Mg570      Mg  0.42051779  0.99823217  0.50295663     1.58100
O571        O  0.49204213  0.94465442  0.52164860    -0.87800
O572        O  0.48406036  0.99672341  0.52500511    -0.75100
C573        C  0.41428095  0.89589064  0.45955191     0.93000
O574        O  0.41007354  0.96656011  0.54933021    -0.74900
O575        O  0.40112953  0.91231508  0.46238477    -0.82400
Mg576      Mg  0.43915989  0.98875073  0.56027990     1.58000
C577        C  0.50291081  0.88809375  0.48499165     0.92900
O578        O  0.46649392  0.01170477  0.57584271    -0.80700
H579        H  0.51459252  0.96061803  0.50306056    -0.06100
C580        C  0.43747999  0.90587720  0.51682011     0.87900
O581        O  0.44211877  0.98477250  0.47462190    -0.75200
O582        O  0.46155839  0.96117726  0.55797188    -0.88000
O583        O  0.50506457  0.89522624  0.50488205    -0.80800
C584        C  0.51485871  0.92153257  0.57282455     0.93100
C585        C  0.48680478  0.00969957  0.58189683     0.92900
Mg586      Mg  0.46188914  0.92145576  0.47564119     1.58000
O587        O  0.43477359  0.89738243  0.46470384    -0.80700
O588        O  0.49101808  0.94444030  0.48504983    -0.75000
O589        O  0.50856068  0.94176074  0.57219546    -0.80800
O590        O  0.41348298  0.01658487  0.56281735    -0.82500
O591        O  0.39022152  0.96613374  0.46329313    -0.80800
C592        C  0.49999696  0.95010154  0.50339840     0.87300
O593        O  0.43927782  0.94840731  0.47673554    -0.88000
O594        O  0.45495377  0.91418477  0.50978706    -0.88100
O595        O  0.41851827  0.91367577  0.51164292    -0.75100
Mg596      Mg  0.49507405  0.96822194  0.54804914     1.58000
O597        O  0.51076674  0.90832315  0.55673971    -0.82500
H598        H  0.46484565  0.01959466  0.50919051    -0.06200
O599        O  0.41028523  0.96539253  0.51283254    -0.87800
H600        H  0.38665250  0.95060091  0.53098544    -0.06100
H601        H  0.45563577  0.96359700  0.45204027    -0.06200
C602        C  0.40155894  0.96068016  0.53088241     0.87300
C603        C  0.46532402  0.00514921  0.51992377     0.87900
C604        C  0.44571533  0.96537845  0.46696572     0.88000
H605        H  0.43839448  0.89199232  0.52827785    -0.06200
O606        O  0.46098122  0.92476791  0.56047453    -0.75200
Mg607      Mg  0.40604265  0.94068741  0.48760066     1.58000
H608        H  0.44558939  0.94529928  0.58251855    -0.06200
C609        C  0.39774073  0.02081905  0.54922299     0.92900
O610        O  0.39277604  0.00036276  0.47759419    -0.82500
C611        C  0.38546595  0.98687745  0.46294851     0.93000
O612        O  0.49892750  0.99370731  0.57514091    -0.82500
Mg613      Mg  0.48265765  0.91160099  0.53169308     1.58200
O614        O  0.39793180  0.01422150  0.52905925    -0.80800
O615        O  0.48639758  0.89363725  0.47302172    -0.82500
C616        C  0.37286743  0.70080693  0.41525355     0.03400
C617        C  0.35976119  0.69767433  0.39610683    -0.12700
C618        C  0.35153413  0.71612900  0.38432448     0.00900
C619        C  0.35644566  0.73769491  0.39181764    -0.11300
C620        C  0.37019399  0.74104883  0.41037622     0.03400
C621        C  0.37821737  0.72252920  0.42212981    -0.10700
H622        H  0.35586504  0.68096697  0.39049066     0.09000
H623        H  0.34987968  0.75194809  0.38287986     0.06500
H624        H  0.38901013  0.72500618  0.43638975     0.06400
C625        C  0.20481574  0.06767031  0.58839587     0.03400
C626        C  0.20147656  0.08726280  0.60083493    -0.12700
C627        C  0.21961596  0.10082699  0.60660849     0.00900
C628        C  0.24093941  0.09521729  0.59897250    -0.11300
C629        C  0.24468604  0.07562667  0.58681848     0.03400
C630        C  0.22654339  0.06170450  0.58202649    -0.10700
H631        H  0.18488582  0.09180764  0.60621182     0.09000
H632        H  0.25482351  0.10600457  0.60302825     0.06500
H633        H  0.22927023  0.04603527  0.57350612     0.06400
C634        C  0.56328724  0.87554754  0.76199142     0.03400
C635        C  0.55672701  0.87888221  0.73975786    -0.12700
C636        C  0.56819319  0.86857833  0.72217794     0.00900
C637        C  0.58657528  0.85504518  0.72690097    -0.11300
C638        C  0.59356450  0.85172447  0.74893710     0.03400
C639        C  0.58181860  0.86187558  0.76648108    -0.10700
H640        H  0.54286579  0.88984608  0.73609092     0.09000
H641        H  0.59562506  0.84722211  0.71336143     0.06500
H642        H  0.58751866  0.85969818  0.78347002     0.06400
C643        C  0.24257323  0.26281750  0.72456548     0.80500
N644        N  0.22668583  0.26708739  0.74011666    -0.77800
C645        C  0.20827693  0.25402767  0.74171190     0.82900
N646        N  0.20588409  0.23648433  0.72760473    -0.77700
C647        C  0.22136017  0.23205748  0.71174811     0.83000
N648        N  0.23963190  0.24533601  0.71047765    -0.79500
C649        C  0.21724380  0.11974093  0.62231577    -0.11700
C650        C  0.20282430  0.13788839  0.61839547     0.03800
C651        C  0.20271257  0.15599832  0.63316581    -0.12200
C652        C  0.21690243  0.15636352  0.65173574     0.18600
C653        C  0.23080744  0.13801545  0.65596398    -0.09300
C654        C  0.23087813  0.11996038  0.64134235    -0.02200
H655        H  0.19196175  0.17010599  0.62985222     0.05200
C656        C  0.21745284  0.17615909  0.66632238     0.20600
H657        H  0.24186925  0.10604656  0.64471916     0.10300
C658        C  0.20047161  0.17939244  0.68192296    -0.15600
C659        C  0.20104067  0.19733026  0.69686145     0.03300
C660        C  0.21903774  0.21271949  0.69618190    -0.10900
C661        C  0.23579875  0.20938653  0.68003784    -0.00900
C662        C  0.23512917  0.19139757  0.66530444    -0.06100
H663        H  0.18684137  0.16760591  0.68272398     0.06300
H664        H  0.24974138  0.22073280  0.67880284     0.09700
Br665      Br  0.25009792  0.13693818  0.68143348    -0.05800
Br666      Br  0.18425151  0.13961214  0.59245226    -0.02800
Br667      Br  0.17664904  0.19880540  0.71754289     0.00100
Br668      Br  0.25878876  0.18828768  0.64401998    -0.04300
C669        C  0.52622337  0.91285841  0.59314157    -0.11700
C670        C  0.53350523  0.92692555  0.61071856     0.03800
C671        C  0.54191288  0.91761330  0.63033704    -0.12200
C672        C  0.54335936  0.89451473  0.63309361     0.18600
C673        C  0.53676627  0.88044675  0.61558611    -0.09300
C674        C  0.52843170  0.88961662  0.59582613    -0.02200
H675        H  0.54696486  0.92851168  0.64381894     0.05200
C676        C  0.55057436  0.88567843  0.65492604     0.20600
H677        H  0.52307532  0.87838162  0.58276406     0.10300
C678        C  0.53481065  0.87555968  0.66888052    -0.15600
C679        C  0.54039126  0.86924186  0.69061435     0.03300
C680        C  0.56202105  0.87328637  0.69876709    -0.10900
C681        C  0.57800308  0.88264623  0.68448513    -0.00900
C682        C  0.57243251  0.88885095  0.66272831    -0.06100
H683        H  0.51797925  0.87294965  0.66296026     0.06300
H684        H  0.59475224  0.88563359  0.69046454     0.09700
Br685      Br  0.53878858  0.84864159  0.61799508    -0.05800
Br686      Br  0.53257308  0.95894771  0.60979353    -0.02800
Br687      Br  0.51811517  0.85456511  0.70820099     0.00100
Br688      Br  0.59516171  0.90157455  0.64424059    -0.04300
C689        C  0.37753798  0.03191082  0.55726542    -0.11700
C690        C  0.37085453  0.05286171  0.54914334     0.03800
C691        C  0.34962049  0.06103667  0.55427781    -0.12200
C692        C  0.33483112  0.04831481  0.56712987     0.18600
C693        C  0.34159145  0.02739906  0.57526460    -0.09300
C694        C  0.36292312  0.01949023  0.57053693    -0.02200
H695        H  0.34449411  0.07714239  0.54795497     0.05200
C696        C  0.31220680  0.05669976  0.57162600     0.20600
H697        H  0.36770172  0.00304377  0.57625290     0.10300
C698        C  0.29581593  0.05491569  0.55511400    -0.15600
C699        C  0.27379534  0.06125905  0.55943544     0.03300
C700        C  0.26784873  0.06915722  0.58085574    -0.10900
C701        C  0.28457754  0.07127273  0.59714840    -0.00900
C702        C  0.30658854  0.06542102  0.59258783    -0.06100
H703        H  0.30018309  0.04848011  0.53881675     0.06300
H704        H  0.28051064  0.07734282  0.61365475     0.09700
Br705      Br  0.32167217  0.00841282  0.59150700    -0.05800
Br706      Br  0.39012566  0.07059093  0.53088494    -0.02800
Br707      Br  0.25319506  0.05995874  0.53498995     0.00100
Br708      Br  0.32854151  0.06977063  0.61539065    -0.04300
C709        C  0.40621743  0.87401517  0.45084625    -0.11700
C710        C  0.38342882  0.86797019  0.44957700     0.03800
C711        C  0.37747221  0.84621324  0.44338220    -0.12200
C712        C  0.39372214  0.83013442  0.43855354     0.18600
C713        C  0.41629618  0.83608274  0.43964452    -0.09300
C714        C  0.42231046  0.85772921  0.44555233    -0.02200
H715        H  0.36002932  0.84175206  0.44242171     0.05200
C716        C  0.38700888  0.80744545  0.43158708     0.20600
H717        H  0.43988848  0.86160691  0.44644188     0.10300
C718        C  0.39151437  0.80059932  0.40970820    -0.15600
C719        C  0.38645498  0.77902022  0.40261534     0.03300
C720        C  0.37621256  0.76392028  0.41743082    -0.10900
C721        C  0.37172833  0.77076119  0.43937109    -0.00900
C722        C  0.37706291  0.79232150  0.44652358    -0.06100
H723        H  0.39945374  0.81201672  0.39820755     0.06300
H724        H  0.36403513  0.75927945  0.45097429     0.09700
Br725      Br  0.43968265  0.81491578  0.43429752    -0.05800
Br726      Br  0.35944642  0.88788452  0.45672731    -0.02800
Br727      Br  0.39544854  0.77067276  0.37305774     0.00100
Br728      Br  0.37133321  0.80001318  0.47701682    -0.04300
C729        C  0.58513276  0.78969460  0.42254188    -0.11700
C730        C  0.56172767  0.78883920  0.42417027     0.03800
C731        C  0.55026302  0.80604355  0.43475001    -0.12200
C732        C  0.56164674  0.82449071  0.44335803     0.18600
C733        C  0.58495184  0.82561306  0.44144960    -0.09300
C734        C  0.59654239  0.80823240  0.43109274    -0.02200
H735        H  0.53228300  0.80525176  0.43592900     0.05200
C736        C  0.54859610  0.84245014  0.45383244     0.20600
H737        H  0.61449094  0.80917997  0.42967390     0.10300
C738        C  0.54916526  0.84510334  0.47702445    -0.15600
C739        C  0.53497170  0.86022330  0.48772411     0.03300
C740        C  0.51979713  0.87303198  0.47497573    -0.10900
C741        C  0.52001248  0.87075488  0.45160047    -0.00900
C742        C  0.53412383  0.85563940  0.44106580    -0.06100
H743        H  0.56020361  0.83480074  0.48690887     0.06300
H744        H  0.50888834  0.88056362  0.44132798     0.09700
Br745      Br  0.60139597  0.85090108  0.45192220    -0.05800
Br746      Br  0.54436829  0.76549246  0.41085649    -0.02800
Br747      Br  0.53644254  0.86116201  0.51969394     0.00100
Br748      Br  0.53287069  0.85341114  0.40915790    -0.04300
C749        C  0.44473649  0.55685767  0.60022337    -0.11700
C750        C  0.43233230  0.54445381  0.61577337     0.03800
C751        C  0.42437436  0.55475045  0.63503603    -0.12200
C752        C  0.42843788  0.57740904  0.63903987     0.18600
C753        C  0.43966309  0.59013086  0.62281887    -0.09300
C754        C  0.44759704  0.57981625  0.60348829    -0.02200
H755        H  0.41574198  0.54481662  0.64738172     0.05200
C756        C  0.42281906  0.58665365  0.66114644     0.20600
H757        H  0.45720951  0.58947810  0.59165966     0.10300
C758        C  0.44013430  0.59381821  0.67510316    -0.15600
C759        C  0.43586691  0.60053459  0.69696675     0.03300
C760        C  0.41398330  0.59960846  0.70536607    -0.10900
C761        C  0.39657458  0.59304631  0.69120340    -0.00900
C762        C  0.40082524  0.58663460  0.66923038    -0.06100
H763        H  0.45712393  0.59385271  0.66905327     0.06300
H764        H  0.37965214  0.59245144  0.69740883     0.09700
Br765      Br  0.44523801  0.62137475  0.62667155    -0.05800
Br766      Br  0.42611682  0.51335977  0.61159151    -0.02800
Br767      Br  0.46037467  0.61155879  0.71429595     0.00100
Br768      Br  0.37608627  0.57811906  0.65089112    -0.04300
C769        C  0.38214386  0.68149406  0.42743419    -0.11700
C770        C  0.37821339  0.67837565  0.45041553     0.03800
C771        C  0.38910194  0.66123788  0.46185073    -0.12200
C772        C  0.40398408  0.64714366  0.45071679     0.18600
C773        C  0.40731467  0.64969146  0.42764771    -0.09300
C774        C  0.39631734  0.66670531  0.41615108    -0.02200
H775        H  0.38646833  0.65930524  0.47960744     0.05200
C776        C  0.41751117  0.63131200  0.46370448     0.20600
H777        H  0.39949993  0.66893745  0.39851979     0.10300
C778        C  0.40903404  0.61021852  0.46908593    -0.15600
C779        C  0.42219093  0.59464485  0.48050354     0.03300
C780        C  0.44416445  0.60026593  0.48663276    -0.10900
C781        C  0.45232592  0.62157739  0.48149443    -0.00900
C782        C  0.43919934  0.63705288  0.47025850    -0.06100
H783        H  0.39234264  0.60572128  0.46396841     0.06300
H784        H  0.46908618  0.62625576  0.48623844     0.09700
Br785      Br  0.42755626  0.63093465  0.41151040    -0.05800
Br786      Br  0.35806826  0.69693959  0.46690111    -0.02800
Br787      Br  0.40994252  0.56559376  0.48569111     0.00100
Br788      Br  0.45165263  0.66583038  0.46405618    -0.04300
C789        C  0.55472069  0.60623214  0.44875782    -0.11700
C790        C  0.54176531  0.62468574  0.44185990     0.03800
C791        C  0.55219409  0.64353657  0.43319652    -0.12200
C792        C  0.57536605  0.64444120  0.43109473     0.18600
C793        C  0.58824881  0.62576337  0.43686905    -0.09300
C794        C  0.57788288  0.60676275  0.44549723    -0.02200
H795        H  0.54220072  0.65783672  0.42855495     0.05200
C796        C  0.58559861  0.66561271  0.42411917     0.20600
H797        H  0.58808726  0.59280579  0.45065790     0.10300
C798        C  0.59623146  0.67886191  0.44015151    -0.15600
C799        C  0.60361365  0.70029544  0.43484194     0.03300
C800        C  0.60025551  0.70873942  0.41317610    -0.10900
C801        C  0.59035769  0.69508190  0.39695641    -0.00900
C802        C  0.58299205  0.67368990  0.40229567    -0.06100
H803        H  0.59827870  0.67269855  0.45699782     0.06300
H804        H  0.58766520  0.70136199  0.38024488     0.09700
Br805      Br  0.61999613  0.62574158  0.43365510    -0.05800
Br806      Br  0.50979484  0.62540465  0.44362480    -0.02800
Br807      Br  0.61843652  0.71713591  0.45761950     0.00100
Br808      Br  0.56913520  0.65619557  0.37942512    -0.04300
C809        C  0.60520523  0.45726789  0.56250492    -0.11700
C810        C  0.62446071  0.46959542  0.56783008     0.03800
C811        C  0.64313970  0.45870866  0.57605924    -0.12200
C812        C  0.64301732  0.43564352  0.57913198     0.18600
C813        C  0.62342702  0.42342953  0.57526182    -0.09300
C814        C  0.60453002  0.43434654  0.56703363    -0.02200
H815        H  0.65811935  0.46817864  0.57943786     0.05200
C816        C  0.66418605  0.42494107  0.58489617     0.20600
H817        H  0.58974267  0.42479244  0.56314436     0.10300
C818        C  0.66965878  0.42193355  0.60734262    -0.15600
C819        C  0.69124584  0.41586930  0.61352215     0.03300
C820        C  0.70765709  0.41261421  0.59695352    -0.10900
C821        C  0.70181897  0.41498664  0.57442657    -0.00900
C822        C  0.68031364  0.42122528  0.56834016    -0.06100
H823        H  0.65738265  0.42537135  0.62011900     0.06300
H824        H  0.71414517  0.41231187  0.56151922     0.09700
Br825      Br  0.62227260  0.39186785  0.57985478    -0.05800
Br826      Br  0.62626217  0.50136887  0.56426606    -0.02800
Br827      Br  0.69766396  0.41453239  0.64481058     0.00100
Br828      Br  0.67390929  0.42559521  0.53729939    -0.04300
C829        C  0.49706370  0.02599917  0.59742427    -0.11700
C830        C  0.48540299  0.03531203  0.61566261     0.03800
C831        C  0.49687087  0.04803455  0.63156060    -0.12200
C832        C  0.51981972  0.05177141  0.62959893     0.18600
C833        C  0.53127699  0.04330337  0.61104010    -0.09300
C834        C  0.51994053  0.03054339  0.59520661    -0.02200
H835        H  0.48801883  0.05434267  0.64597354     0.05200
C836        C  0.53200488  0.06246376  0.64812343     0.20600
H837        H  0.52922374  0.02364465  0.58134665     0.10300
C838        C  0.54058758  0.04895935  0.66511935    -0.15600
C839        C  0.55264652  0.05818652  0.68277694     0.03300
C840        C  0.55607797  0.08142977  0.68375062    -0.10900
C841        C  0.54774036  0.09489984  0.66650903    -0.00900
C842        C  0.53577112  0.08557664  0.64877040    -0.06100
H843        H  0.53811710  0.03109241  0.66446858     0.06300
H844        H  0.55033914  0.11274932  0.66698437     0.09700
Br845      Br  0.56263711  0.04796758  0.60724902    -0.05800
Br846      Br  0.45447649  0.02949034  0.62113592    -0.02800
Br847      Br  0.56516022  0.03810295  0.70431699     0.00100
Br848      Br  0.52497047  0.10486589  0.62573342    -0.04300
C849        C  0.26984856  0.91750271  0.88048776    -0.11700
C850        C  0.28514182  0.90090550  0.88723715     0.03800
C851        C  0.30730411  0.90656362  0.89151034    -0.12200
C852        C  0.31452463  0.92863169  0.88955581     0.18600
C853        C  0.29928958  0.94527881  0.88322723    -0.09300
C854        C  0.27716099  0.93963952  0.87864890    -0.02200
H855        H  0.31882478  0.89381290  0.89701902     0.05200
C856        C  0.33743606  0.93435659  0.89624754     0.20600
H857        H  0.26563822  0.95256503  0.87358074     0.10300
C858        C  0.35461386  0.93454764  0.88043618    -0.15600
C859        C  0.37621260  0.94132304  0.88628025     0.03300
C860        C  0.38076318  0.94822834  0.90842661    -0.10900
C861        C  0.36346178  0.94685975  0.92429905    -0.00900
C862        C  0.34209581  0.94009271  0.91838920    -0.06100
H863        H  0.35109571  0.92974786  0.86339164     0.06300
H864        H  0.36623031  0.95170773  0.94145989     0.09700
Br865      Br  0.30795061  0.97596443  0.88127447    -0.05800
Br866      Br  0.27641936  0.87060066  0.89264177    -0.02800
Br867      Br  0.39821132  0.94073193  0.86306691     0.00100
Br868      Br  0.31950214  0.93970359  0.94102537    -0.04300
C869        C  0.50141076  0.95198849  0.86666299    -0.11700
C870        C  0.52449501  0.94708988  0.86591773     0.03800
C871        C  0.53311565  0.93390484  0.84873331    -0.12200
C872        C  0.51930578  0.92533580  0.83204887     0.18600
C873        C  0.49630450  0.92964263  0.83292393    -0.09300
C874        C  0.48751300  0.94274681  0.85018629    -0.02200
H875        H  0.55081721  0.93047497  0.84823798     0.05200
C876        C  0.52953019  0.91250012  0.81362328     0.20600
H877        H  0.46984272  0.94632645  0.85026726     0.10300
C878        C  0.53139639  0.88927075  0.81531385    -0.15600
C879        C  0.54228236  0.87687518  0.79874503     0.03300
C880        C  0.55163462  0.88780165  0.78011979    -0.10900
C881        C  0.54947474  0.91106798  0.77843005    -0.00900
C882        C  0.53861080  0.92338938  0.79497254    -0.06100
H883        H  0.52442154  0.88077630  0.82962492     0.06300
H884        H  0.55651574  0.91975035  0.76426235     0.09700
Br885      Br  0.47652278  0.91865949  0.81040003    -0.05800
Br886      Br  0.54535400  0.95716335  0.88800815    -0.02800
Br887      Br  0.54292430  0.84507615  0.80190076     0.00100
Br888      Br  0.53671023  0.95511222  0.79156561    -0.04300
C889        C  0.56523818  0.09260336  0.76571585    -0.11700
C890        C  0.57949402  0.08065038  0.78002429     0.03800
C891        C  0.57276347  0.07593679  0.80175979    -0.12200
C892        C  0.55179845  0.08265682  0.80947701     0.18600
C893        C  0.53758113  0.09476286  0.79526396    -0.09300
C894        C  0.54436650  0.09960884  0.77349652    -0.02200
H895        H  0.58369922  0.06646874  0.81255445     0.05200
C896        C  0.54468463  0.07563834  0.83192457     0.20600
H897        H  0.53331564  0.10878226  0.76257221     0.10300
C898        C  0.54146438  0.09157268  0.84868552    -0.15600
C899        C  0.53426934  0.08531836  0.86999786     0.03300
C900        C  0.53075676  0.06249452  0.87496117    -0.10900
C901        C  0.53470054  0.04665025  0.85805744    -0.00900
C902        C  0.54122509  0.05302463  0.83673910    -0.06100
H903        H  0.54413404  0.10903607  0.84499759     0.06300
H904        H  0.53198341  0.02907433  0.86108064     0.09700
Br905      Br  0.50845058  0.10409621  0.80446738    -0.05800
Br906      Br  0.60765992  0.06908040  0.77027294    -0.02800
Br907      Br  0.52847309  0.10911279  0.89056420     0.00100
Br908      Br  0.54364501  0.03024706  0.81436019    -0.04300
C909        C  0.37581532  0.20238852  0.06030471    -0.11700
C910        C  0.36433798  0.19026528  0.04387076     0.03800
C911        C  0.37068962  0.16832603  0.03908472    -0.12200
C912        C  0.38826294  0.15819092  0.05073444     0.18600
C913        C  0.39893500  0.17005069  0.06796674    -0.09300
C914        C  0.39270897  0.19200651  0.07257381    -0.02200
H915        H  0.36244707  0.15943746  0.02571859     0.05200
C916        C  0.39730131  0.13667839  0.04272890     0.20600
H917        H  0.40133494  0.20116124  0.08551588     0.10300
C918        C  0.41857635  0.13661051  0.03328903    -0.15600
C919        C  0.42789047  0.11719947  0.02453644     0.03300
C920        C  0.41563757  0.09696384  0.02492534    -0.10900
C921        C  0.39425594  0.09710917  0.03463230    -0.00900
C922        C  0.38508451  0.11671078  0.04347102    -0.06100
H923        H  0.42793829  0.15201594  0.03240745     0.06300
H924        H  0.38449812  0.08195715  0.03523733     0.09700
Br925      Br  0.42224600  0.15698857  0.08549476    -0.05800
Br926      Br  0.34035923  0.20330980  0.02729801    -0.02800
Br927      Br  0.45694451  0.12066865  0.01147545     0.00100
Br928      Br  0.35606411  0.11537156  0.05670972    -0.04300
C929        C  0.91458556  0.36533317  0.96097691    -0.11700
C930        C  0.91274096  0.34415617  0.97099834     0.03800
C931        C  0.90557830  0.32612525  0.95840708    -0.12200
C932        C  0.90027427  0.32874300  0.93588861     0.18600
C933        C  0.90078520  0.34999951  0.92610634    -0.09300
C934        C  0.90782599  0.36826287  0.93876848    -0.02200
H935        H  0.90477210  0.30977587  0.96603202     0.05200
C936        C  0.89562221  0.30854479  0.92303656     0.20600
H937        H  0.90908865  0.38448672  0.93096979     0.10300
C938        C  0.87350822  0.30210762  0.91960588    -0.15600
C939        C  0.86858015  0.28078669  0.91172826     0.03300
C940        C  0.88604394  0.26571195  0.90731558    -0.10900
C941        C  0.90817611  0.27258783  0.90983956    -0.00900
C942        C  0.91305675  0.29387715  0.91762398    -0.06100
H943        H  0.86007948  0.31327044  0.92415443     0.06300
H944        H  0.92167333  0.26116879  0.90620595     0.09700
Br945      Br  0.89340386  0.35441853  0.89535268    -0.05800
Br946      Br  0.91963544  0.33870680  0.00181118    -0.02800
Br947      Br  0.83783160  0.27245835  0.90935835     0.00100
Br948      Br  0.94371183  0.30192183  0.92167529    -0.04300
C949        C  0.76372204  0.55787794  0.10361336    -0.11700
C950        C  0.77928867  0.55380416  0.12074614     0.03800
C951        C  0.80103601  0.54748785  0.11534412    -0.12200
C952        C  0.80755916  0.54512953  0.09305366     0.18600
C953        C  0.79198778  0.54896286  0.07595295    -0.09300
C954        C  0.77030040  0.55539939  0.08131209    -0.02200
H955        H  0.81277102  0.54388025  0.12856814     0.05200
C956        C  0.82972142  0.53595590  0.08793708     0.20600
H957        H  0.75849258  0.55845292  0.06801091     0.10300
C958        C  0.83288511  0.51300576  0.09036696    -0.15600
C959        C  0.85238372  0.50291485  0.08287326     0.03300
C960        C  0.86923122  0.51589111  0.07297613    -0.10900
C961        C  0.86673811  0.53909524  0.07185987    -0.00900
C962        C  0.84701321  0.54919931  0.07922885    -0.06100
H963        H  0.81971069  0.50277056  0.09723298     0.06300
H964        H  0.87954532  0.54917343  0.06414016     0.09700
Br965      Br  0.79928568  0.54451846  0.04512775    -0.05800
Br966      Br  0.77133015  0.55503325  0.15170767    -0.02800
Br967      Br  0.85489190  0.47115334  0.08574116     0.00100
Br968      Br  0.84386476  0.58083944  0.07621289    -0.04300
C969        C  0.03511667  0.41888197  0.10479371    -0.11700
C970        C  0.04078490  0.39603876  0.10608559     0.03800
C971        C  0.05031440  0.38761908  0.12569549    -0.12200
C972        C  0.05443044  0.40163859  0.14394285     0.18600
C973        C  0.05053387  0.42461390  0.14193408    -0.09300
C974        C  0.04110928  0.43303229  0.12248556    -0.02200
H975        H  0.05343917  0.36990522  0.12716479     0.05200
C976        C  0.06023897  0.39208907  0.16581831     0.20600
H977        H  0.03723833  0.45065088  0.12175067     0.10300
C978        C  0.08177595  0.39495854  0.17429426    -0.15600
C979        C  0.08671332  0.38926032  0.19635707     0.03300
C980        C  0.06992134  0.38037023  0.21019909    -0.10900
C981        C  0.04854904  0.37697804  0.20146670    -0.00900
C982        C  0.04361940  0.38276335  0.17947010    -0.06100
H983        H  0.09449452  0.40255561  0.16400292     0.06300
H984        H  0.03553952  0.37017506  0.21194994     0.09700
Br985      Br  0.05556720  0.44487371  0.16618559    -0.05800
Br986      Br  0.03400865  0.37506907  0.08288651    -0.02800
Br987      Br  0.11599776  0.39589202  0.20726532     0.00100
Br988      Br  0.01358007  0.37905367  0.16926143    -0.04300
C989        C  0.78519104  0.54268525  0.90164963    -0.11700
C990        C  0.78359241  0.53747550  0.92454678     0.03800
C991        C  0.80008681  0.52454987  0.93471082    -0.12200
C992        C  0.81849938  0.51685698  0.92257901     0.18600
C993        C  0.82016975  0.52201422  0.89976382    -0.09300
C994        C  0.80358846  0.53482542  0.88948570    -0.02200
H995        H  0.79884018  0.52090631  0.95235298     0.05200
C996        C  0.83621839  0.50451650  0.93449417     0.20600
H997        H  0.80510720  0.53876519  0.87193326     0.10300
C998        C  0.83856880  0.48144798  0.93141699    -0.15600
C999        C  0.85402831  0.46918383  0.94397272     0.03300
C1000       C  0.86724980  0.48007223  0.96011489    -0.10900
C1001       C  0.86508454  0.50323711  0.96274540    -0.00900
C1002       C  0.84993146  0.51544477  0.95001179    -0.06100
H1003       H  0.82797654  0.47289453  0.91957989     0.06300
H1004       H  0.87533055  0.51196333  0.97476857     0.09700
Br1005     Br  0.84526746  0.51279662  0.88231320    -0.05800
Br1006     Br  0.76031196  0.54896369  0.94323788    -0.02800
Br1007     Br  0.85511402  0.43754957  0.93948002     0.00100
Br1008     Br  0.84878005  0.54713398  0.95412445    -0.04300
C1009       C  0.52934690  0.10012940  0.99637301    -0.11700
C1010       C  0.54193822  0.11554594  0.98372372     0.03800
C1011       C  0.55535759  0.13125533  0.99457272    -0.12200
C1012       C  0.55673361  0.13188129  0.01787704     0.18600
C1013       C  0.54516792  0.11590395  0.03046140    -0.09300
C1014       C  0.53164665  0.10030070  0.01974229    -0.02200
H1015       H  0.56421787  0.14356118  0.98479341     0.05200
C1016       C  0.56879768  0.15036642  0.02881182     0.20600
H1017       H  0.52257206  0.08844172  0.02986263     0.10300
C1018       C  0.55650459  0.16675419  0.04007790    -0.15600
C1019       C  0.56714696  0.18470000  0.05039950     0.03300
C1020       C  0.59049561  0.18644855  0.04953467    -0.10900
C1021       C  0.60283088  0.17001969  0.03836603    -0.00900
C1022       C  0.59214573  0.15211852  0.02790437    -0.06100
H1023       H  0.53852948  0.16554288  0.04084179     0.06300
H1024       H  0.62080956  0.17120092  0.03770627     0.09700
Br1025     Br  0.54728971  0.11481964  0.06236017    -0.05800
Br1026     Br  0.54056579  0.11744110  0.95184734    -0.02800
Br1027     Br  0.54918639  0.20593052  0.06617931     0.00100
Br1028     Br  0.61004511  0.13020243  0.01307288    -0.04300
C1029       C  0.36132697  0.34235971  0.71344457    -0.11700
C1030       C  0.36169558  0.32133344  0.72393481     0.03800
C1031       C  0.34245160  0.30827870  0.72450315    -0.12200
C1032       C  0.32277280  0.31569950  0.71444737     0.18600
C1033       C  0.32265292  0.33615545  0.70296711    -0.09300
C1034       C  0.34187737  0.34935452  0.70253889    -0.02200
H1035       H  0.34274783  0.29238253  0.73304387     0.05200
C1036       C  0.30234567  0.30224990  0.71690100     0.20600
H1037       H  0.34139651  0.36546360  0.69441932     0.10300
C1038       C  0.28977615  0.30416522  0.73645138    -0.15600
C1039       C  0.27047412  0.29147530  0.73965684     0.03300
C1040       C  0.26309880  0.27674178  0.72267231    -0.10900
C1041       C  0.27616086  0.27477979  0.70320876    -0.00900
C1042       C  0.29567621  0.28713507  0.70039052    -0.06100
H1043       H  0.29523617  0.31542188  0.74946795     0.06300
H1044       H  0.27131860  0.26347633  0.69001124     0.09700
Br1045     Br  0.29634407  0.34698294  0.68847121    -0.05800
Br1046     Br  0.38817642  0.30962751  0.73748713    -0.02800
Br1047     Br  0.25640250  0.29440855  0.76827510     0.00100
Br1048     Br  0.31313678  0.28240483  0.67404586    -0.04300
C1049       C  0.42389616  0.38736659  0.68069224    -0.11700
C1050       C  0.44680796  0.38248002  0.67892345     0.03800
C1051       C  0.45962036  0.39252666  0.66222462    -0.12200
C1052       C  0.44988600  0.40737385  0.64707739     0.18600
C1053       C  0.42674094  0.41110491  0.64790158    -0.09300
C1054       C  0.41392850  0.40112987  0.66464427    -0.02200
H1055       H  0.47735687  0.38935181  0.66153239     0.05200
C1056       C  0.46428356  0.42059680  0.63209378     0.20600
H1057       H  0.39630996  0.40483079  0.66567113     0.10300
C1058       C  0.47309283  0.41110100  0.61260906    -0.15600
C1059       C  0.48552984  0.42402073  0.59756093     0.03300
C1060       C  0.48914884  0.44685640  0.60199916    -0.10900
C1061       C  0.48098529  0.45591788  0.62200320    -0.00900
C1062       C  0.46885897  0.44301904  0.63701391    -0.06100
H1063       H  0.46978339  0.39377288  0.60882656     0.06300
H1064       H  0.48390200  0.47328665  0.62595843     0.09700
Br1065     Br  0.41219363  0.43040576  0.62697287    -0.05800
Br1066     Br  0.46128644  0.36214169  0.69889356    -0.02800
Br1067     Br  0.49561514  0.41001109  0.57065335     0.00100
Br1068     Br  0.45879346  0.45681726  0.66407517    -0.04300
C1069       C  0.68202267  0.55036664  0.09168876    -0.11700
C1070       C  0.67321975  0.55896955  0.07175861     0.03800
C1071       C  0.65666845  0.54725460  0.06035802    -0.12200
C1072       C  0.64826669  0.52705905  0.06866561     0.18600
C1073       C  0.65706028  0.51846351  0.08872591    -0.09300
C1074       C  0.67390629  0.53008699  0.09999102    -0.02200
H1075       H  0.65045626  0.55384316  0.04474384     0.05200
C1076       C  0.63101003  0.51511245  0.05551531     0.20600
H1077       H  0.68074108  0.52327316  0.11524276     0.10300
C1078       C  0.63569565  0.49390750  0.04677462    -0.15600
C1079       C  0.62089966  0.48337258  0.03209032     0.03300
C1080       C  0.60115355  0.49432434  0.02550021    -0.10900
C1081       C  0.59624084  0.51525959  0.03471905    -0.00900
C1082       C  0.61077229  0.52552600  0.04975420    -0.06100
H1083       H  0.65132430  0.48583880  0.05076466     0.06300
H1084       H  0.58102697  0.52377551  0.03008649     0.09700
Br1085     Br  0.64633120  0.49130279  0.10168978    -0.05800
Br1086     Br  0.68399678  0.58620988  0.05899151    -0.02800
Br1087     Br  0.62959339  0.45500876  0.02012436     0.00100
Br1088     Br  0.60207957  0.55373314  0.06209047    -0.04300
C1089       C  0.59610446  0.52834884  0.91414547    -0.11700
C1090       C  0.61392151  0.53330001  0.92890038     0.03800
C1091       C  0.63434664  0.54021681  0.92039754    -0.12200
C1092       C  0.63774304  0.54256633  0.89748549     0.18600
C1093       C  0.62016081  0.53814366  0.88270390    -0.09300
C1094       C  0.59951892  0.53125191  0.89107169    -0.02200
H1095       H  0.64791984  0.54357066  0.93181486     0.05200
C1096       C  0.66011074  0.54922409  0.88986960     0.20600
H1097       H  0.58634685  0.52746098  0.87935543     0.10300
C1098       C  0.67392538  0.53344595  0.87954795    -0.15600
C1099       C  0.69645458  0.53805502  0.87577163     0.03300
C1100       C  0.70544459  0.55863346  0.88266841    -0.10900
C1101       C  0.69130412  0.57472346  0.89205600    -0.00900
C1102       C  0.66882448  0.57018568  0.89563834    -0.06100
H1103       H  0.66731784  0.51727272  0.87504170     0.06300
H1104       H  0.69791523  0.59071545  0.89716973     0.09700
Br1105     Br  0.62363868  0.54115888  0.85108224    -0.05800
Br1106     Br  0.61250726  0.53097841  0.96086904    -0.02800
Br1107     Br  0.71401852  0.51600486  0.86069698     0.00100
Br1108     Br  0.65067575  0.59294769  0.90888141    -0.04300
C1109       C  0.39017059  0.28303656  0.04552361    -0.11700
C1110       C  0.39038287  0.28414128  0.02200360     0.03800
C1111       C  0.40345209  0.30013628  0.01118402    -0.12200
C1112       C  0.41638838  0.31524720  0.02339094     0.18600
C1113       C  0.41541618  0.31483725  0.04686539    -0.09300
C1114       C  0.40247059  0.29877134  0.05770688    -0.02200
H1115       H  0.40373718  0.30062401  0.99313777     0.05200
C1116       C  0.43105304  0.33102323  0.01135859     0.20600
H1117       H  0.40231626  0.29832185  0.07575616     0.10300
C1118       C  0.42165894  0.34820820  0.99855172    -0.15600
C1119       C  0.43519192  0.36384354  0.98767078     0.03300
C1120       C  0.45853742  0.36246152  0.98972587    -0.10900
C1121       C  0.46784223  0.34481468  0.00196451    -0.00900
C1122       C  0.45436989  0.32900067  0.01241379    -0.06100
H1123       H  0.40373004  0.34972155  0.99740608     0.06300
H1124       H  0.48575860  0.34329715  0.00338614     0.09700
Br1125     Br  0.43122928  0.33604945  0.06481996    -0.05800
Br1126     Br  0.37248426  0.26488604  0.00381359    -0.02800
Br1127     Br  0.42092467  0.38754312  0.97165741     0.00100
Br1128     Br  0.46860853  0.30459582  0.02740642    -0.04300
C1129       C  0.56948584  0.37510791  0.02314657    -0.11700
C1130       C  0.55600367  0.35955991  0.03457213     0.03800
C1131       C  0.56521357  0.33959374  0.04201978    -0.12200
C1132       C  0.58779523  0.33483527  0.03875446     0.18600
C1133       C  0.60155457  0.35073814  0.02845452    -0.09300
C1134       C  0.59236383  0.37071697  0.02077395    -0.02200
H1135       H  0.55458570  0.32749127  0.05015483     0.05200
C1136       C  0.59608394  0.31265784  0.04528890     0.20600
H1137       H  0.60302775  0.38249609  0.01223643     0.10300
C1138       C  0.60267263  0.29757831  0.02868438    -0.15600
C1139       C  0.60802883  0.27553098  0.03401972     0.03300
C1140       C  0.60631476  0.26818021  0.05630432    -0.10900
C1141       C  0.60023923  0.28356300  0.07291504    -0.00900
C1142       C  0.59536018  0.30563979  0.06761496    -0.06100
H1143       H  0.60331412  0.30291136  0.01144675     0.06300
H1144       H  0.59894012  0.27831221  0.09013735     0.09700
Br1145     Br  0.63287697  0.34590424  0.02456573    -0.05800
Br1146     Br  0.52508173  0.36454428  0.04118257    -0.02800
Br1147     Br  0.61844782  0.25668494  0.01037033     0.00100
Br1148     Br  0.58800291  0.32566670  0.09145650    -0.04300
C1149       C  0.47642426  0.52197103  0.87277404    -0.11700
C1150       C  0.45308627  0.52480297  0.87086618     0.03800
C1151       C  0.44436863  0.53807172  0.85388489    -0.12200
C1152       C  0.45829343  0.54838021  0.83829882     0.18600
C1153       C  0.48151711  0.54626067  0.84050616    -0.09300
C1154       C  0.49038765  0.53329528  0.85774501    -0.02200
H1155       H  0.42648593  0.53999781  0.85250937     0.05200
C1156       C  0.44801059  0.56080515  0.81969748     0.20600
H1157       H  0.50827221  0.53124739  0.85872614     0.10300
C1158       C  0.45093742  0.58394860  0.81822770    -0.15600
C1159       C  0.44035512  0.59622919  0.80148625     0.03300
C1160       C  0.42631465  0.58535757  0.78617710    -0.10900
C1161       C  0.42370363  0.56219611  0.78739870    -0.00900
C1162       C  0.43443598  0.54988483  0.80395249    -0.06100
H1163       H  0.46141872  0.59246981  0.83018542     0.06300
H1164       H  0.41321011  0.55367844  0.77544102     0.09700
Br1165     Br  0.50170551  0.55932599  0.81946749    -0.05800
Br1166     Br  0.43185603  0.51132127  0.89068197    -0.02800
Br1167     Br  0.44636422  0.62755011  0.79948484     0.00100
Br1168     Br  0.43050436  0.51813842  0.80395391    -0.04300
C1169       C  0.44988590  0.41108065  0.87253308    -0.11700
C1170       C  0.44155269  0.38946926  0.86793047     0.03800
C1171       C  0.43335605  0.38446048  0.84658757    -0.12200
C1172       C  0.43299750  0.40063646  0.82973401     0.18600
C1173       C  0.44029374  0.42228948  0.83447014    -0.09300
C1174       C  0.44862044  0.42732729  0.85555800    -0.02200
H1175       H  0.42741163  0.36779931  0.84303619     0.05200
C1176       C  0.42564263  0.39468159  0.80703028     0.20600
H1177       H  0.45463105  0.44409398  0.85838452     0.10300
C1178       C  0.40373739  0.39928167  0.80048647    -0.15600
C1179       C  0.39666752  0.39495730  0.77868181     0.03300
C1180       C  0.41161381  0.38556094  0.76311059    -0.10900
C1181       C  0.43364036  0.38129457  0.76968670    -0.00900
C1182       C  0.44072147  0.38587682  0.79140629    -0.06100
H1183       H  0.39224377  0.40666687  0.81228029     0.06300
H1184       H  0.44533720  0.37417334  0.75792987     0.09700
Br1185     Br  0.43989806  0.44538220  0.81233633    -0.05800
Br1186     Br  0.44039824  0.36605402  0.88969433    -0.02800
Br1187     Br  0.36695262  0.40363213  0.77072531     0.00100
Br1188     Br  0.47125718  0.38038904  0.79893161    -0.04300
C1189       C  0.28511251  0.04584931  0.38119819    -0.11700
C1190       C  0.30146624  0.03391642  0.36921439     0.03800
C1191       C  0.31878747  0.02323620  0.38070668    -0.12200
C1192       C  0.31989971  0.02411483  0.40403926     0.18600
C1193       C  0.30357512  0.03591164  0.41595477    -0.09300
C1194       C  0.28645971  0.04668692  0.40455366    -0.02200
H1195       H  0.33127261  0.01404740  0.37147327     0.05200
C1196       C  0.33826034  0.01309493  0.41606587     0.20600
H1197       H  0.27406603  0.05577767  0.41401468     0.10300
C1198       C  0.35698451  0.02567852  0.42186092    -0.15600
C1199       C  0.37303508  0.01712772  0.43639709     0.03300
C1200       C  0.37042472  0.99552895  0.44542934    -0.10900
C1201       C  0.35227238  0.98248462  0.43850493    -0.00900
C1202       C  0.33616456  0.99117554  0.42405694    -0.06100
H1203       H  0.35871734  0.04252945  0.41563188     0.06300
H1204       H  0.35002860  0.96586213  0.44515751     0.09700
Br1205     Br  0.30391710  0.03752780  0.44790470    -0.05800
Br1206     Br  0.30016221  0.03050852  0.33745206    -0.02800
Br1207     Br  0.39822036  0.03570830  0.44292976     0.00100
Br1208     Br  0.31085797  0.97314859  0.41674522    -0.04300
C1209       C  0.91039390  0.87518263  0.27199764    -0.11700
C1210       C  0.89568058  0.88754018  0.28547105     0.03800
C1211       C  0.90148113  0.89245977  0.30747990    -0.12200
C1212       C  0.92201782  0.88559620  0.31622754     0.18600
C1213       C  0.93625117  0.87233718  0.30311225    -0.09300
C1214       C  0.93036541  0.86723655  0.28113639    -0.02200
H1215       H  0.89061967  0.90297284  0.31734773     0.05200
C1216       C  0.92997800  0.89590599  0.33710139     0.20600
H1217       H  0.94172637  0.85764826  0.27090095     0.10300
C1218       C  0.93237881  0.88330552  0.35666005    -0.15600
C1219       C  0.94132346  0.89288357  0.37607317     0.03300
C1220       C  0.94770568  0.91561092  0.37603533    -0.10900
C1221       C  0.94446880  0.92813070  0.35647415    -0.00900
C1222       C  0.93606441  0.91848265  0.33717442    -0.06100
H1223       H  0.92786250  0.86583792  0.35661536     0.06300
H1224       H  0.94920610  0.94552918  0.35583839     0.09700
Br1225     Br  0.96467494  0.86249133  0.31383349    -0.05800
Br1226     Br  0.86873937  0.90022263  0.27388870    -0.02800
Br1227     Br  0.94582937  0.87354588  0.40116457     0.00100
Br1228     Br  0.93486217  0.93657962  0.31078181    -0.04300
C1229       C  0.05271366  0.87849294  0.53747034    -0.11700
C1230       C  0.03953228  0.86240941  0.54838462     0.03800
C1231       C  0.04968372  0.84419188  0.55857551    -0.12200
C1232       C  0.07282943  0.84162053  0.55794562     0.18600
C1233       C  0.08611418  0.85849259  0.54858299    -0.09300
C1234       C  0.07599492  0.87694057  0.53860701    -0.02200
H1235       H  0.03938951  0.83125923  0.56581091     0.05200
C1236       C  0.08204821  0.81959289  0.56338887     0.20600
H1237       H  0.08629352  0.88927378  0.53040461     0.10300
C1238       C  0.08889163  0.80596004  0.54572581    -0.15600
C1239       C  0.09466091  0.78377020  0.54935879     0.03300
C1240       C  0.09338413  0.77480605  0.57104807    -0.10900
C1241       C  0.08719758  0.78871772  0.58886819    -0.00900
C1242       C  0.08149440  0.81099066  0.58515651    -0.06100
H1243       H  0.08924403  0.81251668  0.52890264     0.06300
H1244       H  0.08644704  0.78213212  0.60565854     0.09700
Br1245     Br  0.11795531  0.85628421  0.54791108    -0.05800
Br1246     Br  0.00760334  0.86403631  0.54930851    -0.02800
Br1247     Br  0.10484910  0.76689668  0.52413534     0.00100
Br1248     Br  0.07309850  0.82909760  0.61012110    -0.04300
C1249       C  0.09528709  0.99418193  0.53333427    -0.11700
C1250       C  0.09844069  0.01727851  0.53007461     0.03800
C1251       C  0.11556884  0.02832069  0.54119229    -0.12200
C1252       C  0.13003949  0.01676495  0.55536329     0.18600
C1253       C  0.12620845  0.99400533  0.55965436    -0.09300
C1254       C  0.10878042  0.98291155  0.54876880    -0.02200
H1255       H  0.11816236  0.04591807  0.53812292     0.05200
C1256       C  0.14972603  0.02864515  0.56417584     0.20600
H1257       H  0.10666114  0.96517730  0.55133566     0.10300
C1258       C  0.15127527  0.03345961  0.58699651    -0.15600
C1259       C  0.16917244  0.04585639  0.59541122     0.03300
C1260       C  0.18573050  0.05393084  0.58076475    -0.10900
C1261       C  0.18422682  0.04873814  0.55798837    -0.00900
C1262       C  0.16654068  0.03618266  0.54967252    -0.06100
H1263       H  0.13847446  0.02760386  0.59827597     0.06300
H1264       H  0.19682386  0.05466832  0.54651401     0.09700
Br1265     Br  0.14546895  0.97702205  0.57864516    -0.05800
Br1266     Br  0.08013302  0.03471287  0.51040269    -0.02800
Br1267     Br  0.17070262  0.05009050  0.62707016     0.00100
Br1268     Br  0.16634391  0.02941230  0.51837930    -0.04300
C1269       C  0.09834335  0.02972070  0.42279721    -0.11700
C1270       C  0.10185830  0.02979059  0.39955817     0.03800
C1271       C  0.12186973  0.03804222  0.39095618    -0.12200
C1272       C  0.13858319  0.04608064  0.40517180     0.18600
C1273       C  0.13446866  0.04741096  0.42821212    -0.09300
C1274       C  0.11448145  0.03925083  0.43681730    -0.02200
H1275       H  0.12494586  0.03702758  0.37319188     0.05200
C1276       C  0.16086994  0.05083573  0.39594235     0.20600
H1277       H  0.11201571  0.03928999  0.45471165     0.10300
C1278       C  0.16895773  0.07272460  0.39576796    -0.15600
C1279       C  0.19025326  0.07745066  0.38759995     0.03300
C1280       C  0.20353098  0.06014145  0.37873945    -0.10900
C1281       C  0.19544398  0.03822437  0.37918422    -0.00900
C1282       C  0.17443335  0.03345704  0.38790249    -0.06100
H1283       H  0.15883620  0.08609023  0.40244978     0.06300
H1284       H  0.20560406  0.02471207  0.37286385     0.09700
Br1285     Br  0.15641329  0.05813682  0.44883255    -0.05800
Br1286     Br  0.08142321  0.01625285  0.37903848    -0.02800
Br1287     Br  0.20098729  0.10740898  0.39080653     0.00100
Br1288     Br  0.16550462  0.00280258  0.38963060    -0.04300
C1289       C  0.88550265  0.79266026  0.55742636    -0.11700
C1290       C  0.88282014  0.79334160  0.53400644     0.03800
C1291       C  0.89278215  0.81040474  0.52157067    -0.12200
C1292       C  0.90517320  0.82714798  0.53207648     0.18600
C1293       C  0.90659693  0.82737384  0.55548648    -0.09300
C1294       C  0.89685947  0.81022365  0.56795023    -0.02200
H1295       H  0.89133842  0.81029922  0.50357438     0.05200
C1296       C  0.91834782  0.84286579  0.51837950     0.20600
H1297       H  0.89895618  0.81014678  0.58587886     0.10300
C1298       C  0.90865872  0.86249633  0.51015960    -0.15600
C1299       C  0.92131437  0.87790111  0.49788109     0.03300
C1300       C  0.94407331  0.87365032  0.49366407    -0.10900
C1301       C  0.95349060  0.85376561  0.50171478    -0.00900
C1302       C  0.94087288  0.83846306  0.51383997    -0.06100
H1303       H  0.89133885  0.86604437  0.51369917     0.06300
H1304       H  0.97087558  0.85008737  0.49862088     0.09700
Br1305     Br  0.92249933  0.85034029  0.57097556    -0.05800
Br1306     Br  0.86530573  0.77181102  0.51813054    -0.02800
Br1307     Br  0.90709752  0.90507318  0.48889775     0.00100
Br1308     Br  0.95517991  0.81175966  0.52406843    -0.04300
C1309       C  0.04369483  0.59790459  0.18384020    -0.11700
C1310       C  0.02023577  0.59779438  0.18216048     0.03800
C1311       C  0.00979894  0.58449763  0.16612557    -0.12200
C1312       C  0.02233759  0.57135720  0.15145250     0.18600
C1313       C  0.04574644  0.57273950  0.15200326    -0.09300
C1314       C  0.05622287  0.58582316  0.16820247    -0.02200
H1315       H  0.99178743  0.58400801  0.16543061     0.05200
C1316       C  0.01064108  0.55586569  0.13624045     0.20600
H1317       H  0.07422982  0.58590793  0.16908192     0.10300
C1318       C  0.99707378  0.56440259  0.11925150    -0.15600
C1319       C  0.98553251  0.55017776  0.10475572     0.03300
C1320       C  0.98756740  0.52679067  0.10713275    -0.10900
C1321       C  0.00093847  0.51842443  0.12449840    -0.00900
C1322       C  0.01214856  0.53265112  0.13908848    -0.06100
H1323       H  0.99558315  0.58226932  0.11717379     0.06300
H1324       H  0.00242351  0.50062324  0.12706797     0.09700
Br1325     Br  0.06407907  0.55700043  0.13106427    -0.05800
Br1326     Br  0.00162205  0.61574329  0.20102258    -0.02800
Br1327     Br  0.96813991  0.56401208  0.08175501     0.00100
Br1328     Br  0.02835995  0.51949866  0.16334723    -0.04300
C1329       C  0.60596093  0.49334815  0.44950801    -0.11700
C1330       C  0.60233097  0.48889259  0.42664206     0.03800
C1331       C  0.61841428  0.47717357  0.41435773    -0.12200
C1332       C  0.63811657  0.46981413  0.42448548     0.18600
C1333       C  0.64202969  0.47477351  0.44702071    -0.09300
C1334       C  0.62605377  0.48635243  0.45930207    -0.02200
H1335       H  0.61529790  0.47327291  0.39700874     0.05200
C1336       C  0.65412338  0.45602560  0.41189947     0.20600
H1337       H  0.62931016  0.48971591  0.47674108     0.10300
C1338       C  0.67151090  0.46633392  0.40026613    -0.15600
C1339       C  0.68860869  0.45363187  0.39076650     0.03300
C1340       C  0.68855886  0.43022092  0.39313510    -0.10900
C1341       C  0.67049994  0.41992056  0.40381362    -0.00900
C1342       C  0.65335910  0.43263483  0.41314592    -0.06100
H1343       H  0.67204102  0.48432918  0.39903059     0.06300
H1344       H  0.67011720  0.40196414  0.40557927     0.09700
Br1345     Br  0.66879116  0.46551017  0.46184886    -0.05800
Br1346     Br  0.57519810  0.49666801  0.41167449    -0.02800
Br1347     Br  0.71126291  0.46901422  0.37427500     0.00100
Br1348     Br  0.62965802  0.41749855  0.42827237    -0.04300
C1349       C  0.01784026  0.61726258  0.49287120    -0.11700
C1350       C  0.00916286  0.63475915  0.50599698     0.03800
C1351       C  0.02353842  0.64990375  0.51620296    -0.12200
C1352       C  0.04661749  0.64812325  0.51352405     0.18600
C1353       C  0.05532835  0.63133211  0.49960365    -0.09300
C1354       C  0.04090764  0.61612622  0.48924790    -0.02200
H1355       H  0.01669170  0.66297150  0.52661698     0.05200
C1356       C  0.06104067  0.66321871  0.52660130     0.20600
H1357       H  0.04779452  0.60279294  0.47922003     0.10300
C1358       C  0.06218214  0.66035562  0.54978172    -0.15600
C1359       C  0.07356344  0.67560644  0.56324340     0.03300
C1360       C  0.08434348  0.69404427  0.55344512    -0.10900
C1361       C  0.08348293  0.69663239  0.53015000    -0.00900
C1362       C  0.07178789  0.68155593  0.51677352    -0.06100
H1363       H  0.05349078  0.64656373  0.55751397     0.06300
H1364       H  0.09146610  0.71081945  0.52237264     0.09700
Br1365     Br  0.08676838  0.62771318  0.49547638    -0.05800
Br1366     Br  0.97774880  0.63909493  0.51023001    -0.02800
Br1367     Br  0.07180222  0.67157048  0.59493494     0.00100
Br1368     Br  0.06958423  0.68757506  0.48545747    -0.04300
C1369       C  0.91096555  0.60170229  0.53164301    -0.11700
C1370       C  0.89677764  0.61642829  0.52023097     0.03800
C1371       C  0.89182353  0.63719584  0.52944450    -0.12200
C1372       C  0.90077849  0.64360065  0.55005147     0.18600
C1373       C  0.91409362  0.62841298  0.56203113    -0.09300
C1374       C  0.91942783  0.60774921  0.55257252    -0.02200
H1375       H  0.88140037  0.64867370  0.52020462     0.05200
C1376       C  0.89580420  0.66622363  0.55843190     0.20600
H1377       H  0.93043883  0.59650822  0.56140401     0.10300
C1378       C  0.87364155  0.67175880  0.56309236    -0.15600
C1379       C  0.86772193  0.69344753  0.56905007     0.03300
C1380       C  0.88425014  0.71008301  0.57080005    -0.10900
C1381       C  0.90644437  0.70458103  0.56596005    -0.00900
C1382       C  0.91228175  0.68290572  0.55961509    -0.06100
H1383       H  0.86077723  0.65921075  0.56154010     0.06300
H1384       H  0.91926292  0.71722063  0.56701173     0.09700
Br1385     Br  0.92498500  0.63498865  0.59135981    -0.05800
Br1386     Br  0.88522646  0.60962820  0.49120833    -0.02800
Br1387     Br  0.83656893  0.69964076  0.57281129     0.00100
Br1388     Br  0.94264380  0.67733154  0.55138868    -0.04300
C1389       C  0.99747974  0.45944702  0.37248645    -0.11700
C1390       C  0.98524914  0.44792189  0.35596831     0.03800
C1391       C  0.99636698  0.43429914  0.34054600    -0.12200
C1392       C  0.01958582  0.43183647  0.34120791     0.18600
C1393       C  0.03172924  0.44296253  0.35787008    -0.09300
C1394       C  0.02071563  0.45657945  0.37321574    -0.02200
H1395       H  0.98691298  0.42601821  0.32759702     0.05200
C1396       C  0.03107526  0.41865228  0.32374036     0.20600
H1397       H  0.03047544  0.46508341  0.38578552     0.10300
C1398       C  0.04484230  0.42971192  0.30844101    -0.15600
C1399       C  0.05653367  0.41789461  0.29211481     0.03300
C1400       C  0.05433993  0.39454555  0.29066975    -0.10900
C1401       C  0.04057858  0.38344833  0.30597372    -0.00900
C1402       C  0.02893233  0.39531653  0.32239037    -0.06100
H1403       H  0.04672677  0.44763475  0.30941967     0.06300
H1404       H  0.03882427  0.36551198  0.30507938     0.09700
Br1405     Br  0.06341914  0.43988303  0.36051947    -0.05800
Br1406     Br  0.95373885  0.45139224  0.35227669    -0.02800
Br1407     Br  0.07627834  0.43431473  0.27305865     0.00100
Br1408     Br  0.01093692  0.37893883  0.34306981    -0.04300
C1409       C  0.01953286  0.57308041  0.37435125    -0.11700
C1410       C  0.02469190  0.59570467  0.36989252     0.03800
C1411       C  0.03161878  0.60199145  0.34850887    -0.12200
C1412       C  0.03348331  0.58626321  0.33136292     0.18600
C1413       C  0.02879756  0.56381025  0.33575172    -0.09300
C1414       C  0.02201955  0.55741551  0.35699181    -0.02200
H1415       H  0.03542921  0.61930944  0.34514978     0.05200
C1416       C  0.04038471  0.59344840  0.30894471     0.20600
H1417       H  0.01818722  0.53999423  0.35965629     0.10300
C1418       C  0.06137065  0.58707370  0.30097399    -0.15600
C1419       C  0.06810315  0.59277431  0.27945696     0.03300
C1420       C  0.05381173  0.60531834  0.26573160    -0.10900
C1421       C  0.03278894  0.61163476  0.27366760    -0.00900
C1422       C  0.02599258  0.60577991  0.29514419    -0.06100
H1423       H  0.07236562  0.57729021  0.31141861     0.06300
H1424       H  0.02163543  0.62108542  0.26308358     0.09700
Br1425     Br  0.03032485  0.54136107  0.31298661    -0.05800
Br1426     Br  0.02264450  0.61913228  0.39161428    -0.02800
Br1427     Br  0.09629927  0.58187207  0.26909105     0.00100
Br1428     Br  0.99663371  0.61411766  0.30456054    -0.04300
C1429       C  0.87680227  0.48047224  0.52877562    -0.11700
C1430       C  0.86150878  0.49279322  0.54191233     0.03800
C1431       C  0.84527881  0.48159330  0.55442996    -0.12200
C1432       C  0.84379856  0.45829864  0.55410652     0.18600
C1433       C  0.85934777  0.44598799  0.54171938    -0.09300
C1434       C  0.87567449  0.45701468  0.52940095    -0.02200
H1435       H  0.83322800  0.49114169  0.56388295     0.05200
C1436       C  0.82503530  0.44711246  0.56543344     0.20600
H1437       H  0.88719899  0.44704332  0.51974139     0.10300
C1438       C  0.80786087  0.43810573  0.55245105    -0.15600
C1439       C  0.79009902  0.42681003  0.56235541     0.03300
C1440       C  0.78922844  0.42453357  0.58575864    -0.10900
C1441       C  0.80646376  0.43357505  0.59874268    -0.00900
C1442       C  0.82425462  0.44486198  0.58875499    -0.06100
H1443       H  0.80847541  0.43960626  0.53446502     0.06300
H1444       H  0.80605240  0.43186983  0.61671089     0.09700
Br1445     Br  0.85862935  0.41402911  0.54074052    -0.05800
Br1446     Br  0.86044084  0.52476693  0.54252845    -0.02800
Br1447     Br  0.76836046  0.41361381  0.54295268     0.00100
Br1448     Br  0.84746502  0.45631640  0.60743951    -0.04300
C1449       C  0.87994748  0.44772504  0.42048509    -0.11700
C1450       C  0.87553851  0.43860298  0.39914644     0.03800
C1451       C  0.85426337  0.43034008  0.39421535    -0.12200
C1452       C  0.83726322  0.43066501  0.41021301     0.18600
C1453       C  0.84191756  0.43833488  0.43177995    -0.09300
C1454       C  0.86298397  0.44669674  0.43674507    -0.02200
H1455       H  0.85078643  0.42407956  0.37764077     0.05200
C1456       C  0.81436371  0.42448747  0.40383236     0.20600
H1457       H  0.86569187  0.45323335  0.45334618     0.10300
C1458       C  0.80550670  0.40401347  0.41074862    -0.15600
C1459       C  0.78347860  0.39832454  0.40570414     0.03300
C1460       C  0.77005955  0.41326389  0.39351386    -0.10900
C1461       C  0.77889491  0.43382540  0.38687085    -0.00900
C1462       C  0.80086315  0.43949240  0.39191220    -0.06100
H1463       H  0.81568301  0.39258457  0.42031150     0.06300
H1464       H  0.76870969  0.44542174  0.37751323     0.09700
Br1465     Br  0.81956723  0.43910516  0.45464162    -0.05800
Br1466     Br  0.89733325  0.43672249  0.37587030    -0.02800
Br1467     Br  0.77213936  0.37056362  0.41674545     0.00100
Br1468     Br  0.81156767  0.46814692  0.38269519    -0.04300
C1469       C  0.28944079  0.91934277  0.07543151    -0.11700
C1470       C  0.28910790  0.92221875  0.05211586     0.03800
C1471       C  0.30583322  0.93457446  0.04177199    -0.12200
C1472       C  0.32320595  0.94390133  0.05425739     0.18600
C1473       C  0.32352517  0.94114654  0.07753994    -0.09300
C1474       C  0.30670043  0.92887587  0.08796156    -0.02200
H1475       H  0.30563456  0.93645059  0.02381109     0.05200
C1476       C  0.34152044  0.95512846  0.04239112     0.20600
H1477       H  0.30706304  0.92676400  0.10588782     0.10300
C1478       C  0.34414324  0.97827702  0.04409329    -0.15600
C1479       C  0.36064446  0.98940513  0.03187793     0.03300
C1480       C  0.37488117  0.97712838  0.01758249    -0.10900
C1481       C  0.37239312  0.95380139  0.01660397    -0.00900
C1482       C  0.35592879  0.94287332  0.02866718    -0.06100
H1483       H  0.33297983  0.98776923  0.05463196     0.06300
H1484       H  0.38312064  0.94381416  0.00608109     0.09700
Br1485     Br  0.34703283  0.95306584  0.09556405    -0.05800
Br1486     Br  0.26709821  0.90841739  0.03345914    -0.02800
Br1487     Br  0.36179781  0.02123598  0.03497202     0.00100
Br1488     Br  0.35381808  0.91107409  0.02574929    -0.04300
C1489       C  0.91985526  0.09115963  0.29864510    -0.11700
C1490       C  0.94337871  0.09234469  0.29866851     0.03800
C1491       C  0.95556945  0.08182501  0.31554940    -0.12200
C1492       C  0.94471945  0.07059345  0.33287584     0.18600
C1493       C  0.92134310  0.07142863  0.33416818    -0.09300
C1494       C  0.90908840  0.08144763  0.31703248    -0.02200
H1495       H  0.97358540  0.08186258  0.31481509     0.05200
C1496       C  0.95783676  0.05641212  0.34819900     0.20600
H1497       H  0.89108395  0.08082187  0.31765212     0.10300
C1498       C  0.97061278  0.06606919  0.36517336    -0.15600
C1499       C  0.98290064  0.05279102  0.38000935     0.03300
C1500       C  0.98258675  0.02924136  0.37783314    -0.10900
C1501       C  0.96998014  0.01983963  0.36043535    -0.00900
C1502       C  0.95783620  0.03312892  0.34571852    -0.06100
H1503       H  0.97076715  0.08401595  0.36707152     0.06300
H1504       H  0.96959778  0.00195287  0.35808760     0.09700
Br1505     Br  0.90557798  0.05854537  0.35879101    -0.05800
Br1506     Br  0.95975516  0.10858248  0.27649096    -0.02800
Br1507     Br  0.99870965  0.06812920  0.40321947     0.00100
Br1508     Br  0.94183440  0.01868681  0.32208997    -0.04300
C1509       C  0.12939158  0.26196031  0.86041842    -0.11700
C1510       C  0.11845158  0.25595623  0.84052666     0.03800
C1511       C  0.12982742  0.25690474  0.82019028    -0.12200
C1512       C  0.15215109  0.26369424  0.81932974     0.18600
C1513       C  0.16270595  0.27083915  0.83906033    -0.09300
C1514       C  0.15128049  0.26998431  0.85940083    -0.02200
H1515       H  0.12148227  0.25161441  0.80508805     0.05200
C1516       C  0.16476400  0.26136178  0.79822809     0.20600
H1517       H  0.15983440  0.27462669  0.87459786     0.10300
C1518       C  0.17202787  0.28037770  0.78673525    -0.15600
C1519       C  0.18558738  0.27846846  0.76779404     0.03300
C1520       C  0.19219521  0.25719801  0.76017621    -0.10900
C1521       C  0.18400352  0.23823392  0.77114809    -0.00900
C1522       C  0.17046106  0.24015193  0.78997761    -0.06100
H1523       H  0.16733065  0.29675620  0.79268865     0.06300
H1524       H  0.18883600  0.22176354  0.76557340     0.09700
Br1525     Br  0.19322952  0.28020878  0.83929100    -0.05800
Br1526     Br  0.08808079  0.24608021  0.84043906    -0.02800
Br1527     Br  0.19361762  0.30534799  0.75247732     0.00100
Br1528     Br  0.16131248  0.21324401  0.80462201    -0.04300
C1529       C  0.09101096  0.29010635  0.92902379    -0.11700
C1530       C  0.07183431  0.30088401  0.92091648     0.03800
C1531       C  0.06139648  0.31734330  0.93369947    -0.12200
C1532       C  0.06959854  0.32331152  0.95477622     0.18600
C1533       C  0.08877116  0.31245805  0.96298652    -0.09300
C1534       C  0.09935117  0.29603898  0.95006992    -0.02200
H1535       H  0.04639407  0.32514160  0.92741020     0.05200
C1536       C  0.05640083  0.33917410  0.96852155     0.20600
H1537       H  0.11382455  0.28752583  0.95665977     0.10300
C1538       C  0.03504173  0.33275448  0.97532929    -0.15600
C1539       C  0.02109425  0.34744114  0.98684909     0.03300
C1540       C  0.02847146  0.36924227  0.99203397    -0.10900
C1541       C  0.05010776  0.37551690  0.98564711    -0.00900
C1542       C  0.06390592  0.36082764  0.97369337    -0.06100
H1543       H  0.02906845  0.31617638  0.97142161     0.06300
H1544       H  0.05599793  0.39219085  0.98920564     0.09700
Br1545     Br  0.10012525  0.31828619  0.99228898    -0.05800
Br1546     Br  0.05826201  0.29240919  0.89322573    -0.02800
Br1547     Br  0.99241849  0.33618062  0.99551787     0.00100
Br1548     Br  0.09211937  0.37160750  0.96337404    -0.04300
C1549       C  0.10079460  0.98200816  0.95244668    -0.11700
C1550       C  0.11561044  0.99467849  0.93916193     0.03800
C1551       C  0.13138835  0.98380498  0.92574565    -0.12200
C1552       C  0.13266293  0.96048034  0.92512825     0.18600
C1553       C  0.11714612  0.94788085  0.93724396    -0.09300
C1554       C  0.10145367  0.95859654  0.95064519    -0.02200
H1555       H  0.14328638  0.99359817  0.91637111     0.05200
C1556       C  0.15142547  0.94952871  0.91347163     0.20600
H1557       H  0.09003665  0.94840395  0.96018798     0.10300
C1558       C  0.16872500  0.94039191  0.92621257    -0.15600
C1559       C  0.18670726  0.92961456  0.91604617     0.03300
C1560       C  0.18770022  0.92797416  0.89256982    -0.10900
C1561       C  0.17022916  0.93703974  0.87985664    -0.00900
C1562       C  0.15221594  0.94777199  0.89011681    -0.06100
H1563       H  0.16808632  0.94145937  0.94422973     0.06300
H1564       H  0.17064985  0.93585044  0.86184768     0.09700
Br1565     Br  0.11705785  0.91592000  0.93634517    -0.05800
Br1566     Br  0.11652046  0.02664715  0.93954328    -0.02800
Br1567     Br  0.20854257  0.91628088  0.93524626     0.00100
Br1568     Br  0.12875952  0.95921175  0.87172810    -0.04300
C1569       C  0.10163796  0.94936213  0.06318411    -0.11700
C1570       C  0.11737709  0.94179188  0.04718281     0.03800
C1571       C  0.13771029  0.93294370  0.05418123    -0.12200
C1572       C  0.14285803  0.93096129  0.07682241     0.18600
C1573       C  0.12712517  0.93775789  0.09279903    -0.09300
C1574       C  0.10676136  0.94682201  0.08594851    -0.02200
H1575       H  0.14977066  0.92772351  0.04180050     0.05200
C1576       C  0.16515372  0.92265981  0.08320961     0.20600
H1577       H  0.09511013  0.95233902  0.09856759     0.10300
C1578       C  0.18021031  0.93729615  0.09342551    -0.15600
C1579       C  0.20198649  0.93059318  0.09818124     0.03300
C1580       C  0.20908634  0.90891716  0.09246932    -0.10900
C1581       C  0.19385011  0.89412713  0.08270456    -0.00900
C1582       C  0.17206541  0.90084512  0.07799383    -0.06100
H1583       H  0.17506275  0.95412243  0.09745045     0.06300
H1584       H  0.19908730  0.87744726  0.07820902     0.09700
Br1585     Br  0.13266438  0.93476839  0.12414079    -0.05800
Br1586     Br  0.11277140  0.94240546  0.01543934    -0.02800
Br1587     Br  0.22106331  0.95149194  0.11307005     0.00100
Br1588     Br  0.15235736  0.87964157  0.06448020    -0.04300
C1589       C  0.94844633  0.10243123  0.98651723    -0.11700
C1590       C  0.93889017  0.12100235  0.99731796     0.03800
C1591       C  0.92561552  0.13587179  0.98513112    -0.12200
C1592       C  0.92190762  0.13261078  0.96227731     0.18600
C1593       C  0.93067396  0.11369235  0.95172665    -0.09300
C1594       C  0.94352716  0.09868027  0.96388280    -0.02200
H1595       H  0.91925494  0.15072384  0.99317979     0.05200
C1596       C  0.91213747  0.15067593  0.94888966     0.20600
H1597       H  0.95071563  0.08455375  0.95523494     0.10300
C1598       C  0.92644066  0.16705160  0.94051474    -0.15600
C1599       C  0.91845824  0.18385551  0.92660665     0.03300
C1600       C  0.89563765  0.18460255  0.92109599    -0.10900
C1601       C  0.88133531  0.16802013  0.92933370    -0.00900
C1602       C  0.88946074  0.15106480  0.94313888    -0.06100
H1603       H  0.94402931  0.16645321  0.94447019     0.06300
H1604       H  0.86379051  0.16840085  0.92519081     0.09700
Br1605     Br  0.92739432  0.10889871  0.92025427    -0.05800
Br1606     Br  0.94563832  0.12856350  0.02761700    -0.02800
Br1607     Br  0.93978389  0.20442294  0.91455480     0.00100
Br1608     Br  0.86923023  0.12873499  0.95363399    -0.04300
C1609       C  0.09841753  0.20837970  0.91556700    -0.11700
C1610       C  0.10602832  0.19813617  0.93526442     0.03800
C1611       C  0.09903567  0.17651706  0.94060260    -0.12200
C1612       C  0.08472429  0.16461897  0.92639819     0.18600
C1613       C  0.07761623  0.17469339  0.90639148    -0.09300
C1614       C  0.08447881  0.19634584  0.90115710    -0.02200
H1615       H  0.10463202  0.16901612  0.95603557     0.05200
C1616       C  0.07640727  0.14236995  0.93342426     0.20600
H1617       H  0.07866944  0.20396354  0.88585433     0.10300
C1618       C  0.05354433  0.13942634  0.93695878    -0.15600
C1619       C  0.04501402  0.11929258  0.94504384     0.03300
C1620       C  0.05968300  0.10159483  0.95066611    -0.10900
C1621       C  0.08255302  0.10438849  0.94623443    -0.00900
C1622       C  0.09089796  0.12440805  0.93760399    -0.06100
H1623       H  0.04220036  0.15305676  0.93360424     0.06300
H1624       H  0.09419359  0.09110906  0.94990516     0.09700
Br1625     Br  0.05892138  0.15947518  0.88540569    -0.05800
Br1626     Br  0.12666401  0.21262105  0.95487963    -0.02800
Br1627     Br  0.01311952  0.11758246  0.94732898     0.00100
Br1628     Br  0.12217549  0.12624863  0.93141655    -0.04300
C1629       C  0.98401039  0.95127444  0.10822286    -0.11700
C1630       C  0.96162300  0.94431108  0.10621239     0.03800
C1631       C  0.95213823  0.93084819  0.12260797    -0.12200
C1632       C  0.96460367  0.92389145  0.14101312     0.18600
C1633       C  0.98732557  0.92940945  0.14230970    -0.09300
C1634       C  0.99691286  0.94302514  0.12592570    -0.02200
H1635       H  0.93475069  0.92624184  0.12130958     0.05200
C1636       C  0.95301233  0.91228604  0.15930405     0.20600
H1637       H  0.01413779  0.94805608  0.12763641     0.10300
C1638       C  0.95343654  0.88896945  0.16038199    -0.15600
C1639       C  0.94118747  0.87764158  0.17668013     0.03300
C1640       C  0.92830577  0.88973648  0.19215398    -0.10900
C1641       C  0.92828637  0.91308324  0.19130609    -0.00900
C1642       C  0.94039839  0.92437660  0.17495306    -0.06100
H1643       H  0.96311452  0.87959012  0.14837798     0.06300
H1644       H  0.91847194  0.92252800  0.20315370     0.09700
Br1645     Br  0.00537673  0.91972892  0.16680390    -0.05800
Br1646     Br  0.94314815  0.95234474  0.08132746    -0.02800
Br1647     Br  0.94301881  0.84575261  0.17757947     0.00100
Br1648     Br  0.93902868  0.95632077  0.17434819    -0.04300
C1649       C  0.90753517  0.09103655  0.21622697    -0.11700
C1650       C  0.89448254  0.07788093  0.20179281     0.03800
C1651       C  0.90236939  0.07266440  0.18040766    -0.12200
C1652       C  0.92322049  0.08033035  0.17315470     0.18600
C1653       C  0.93632026  0.09324984  0.18767279    -0.09300
C1654       C  0.92845410  0.09849026  0.20898291    -0.02200
H1655       H  0.89237004  0.06233326  0.16951201     0.05200
C1656       C  0.93166278  0.07379539  0.15088219     0.20600
H1657       H  0.93869651  0.10849867  0.21996184     0.10300
C1658       C  0.93018170  0.08871264  0.13295646    -0.15600
C1659       C  0.93909294  0.08336416  0.11195583     0.03300
C1660       C  0.94989722  0.06260406  0.10862166    -0.10900
C1661       C  0.95088148  0.04765675  0.12679070    -0.00900
C1662       C  0.94196297  0.05307592  0.14761639    -0.06100
H1663       H  0.92218973  0.10471148  0.13539060     0.06300
H1664       H  0.95902941  0.03165674  0.12505188     0.09700
Br1665     Br  0.96533642  0.10354357  0.17928624    -0.05800
Br1666     Br  0.86649610  0.06557888  0.21103341    -0.02800
Br1667     Br  0.93549758  0.10522111  0.08890658     0.00100
Br1668     Br  0.94494139  0.03193643  0.17143999    -0.04300
C1669       C  0.20390101  0.72380185  0.71077960    -0.11700
C1670       C  0.18135838  0.73067537  0.71007942     0.03800
C1671       C  0.16885003  0.72739404  0.69068497    -0.12200
C1672       C  0.17816862  0.71709239  0.67190627     0.18600
C1673       C  0.20024706  0.70947753  0.67280190    -0.09300
C1674       C  0.21282074  0.71277705  0.69208542    -0.02200
H1675       H  0.15178920  0.73322435  0.69011560     0.05200
C1676       C  0.16507632  0.71603026  0.65109908     0.20600
H1677       H  0.22986981  0.70710138  0.69213774     0.10300
C1678       C  0.17174210  0.72911481  0.63294796    -0.15600
C1679       C  0.15852501  0.73067356  0.61388340     0.03300
C1680       C  0.13800813  0.71927156  0.61293405    -0.10900
C1681       C  0.13195670  0.70518720  0.63059369    -0.00900
C1682       C  0.14532947  0.70350555  0.64960818    -0.06100
H1683       H  0.18703198  0.73863284  0.63386690     0.06300
H1684       H  0.11630345  0.69625602  0.63003221     0.09700
Br1685     Br  0.21393456  0.69443311  0.64812070    -0.05800
Br1686     Br  0.16610358  0.74384782  0.73495752    -0.02800
Br1687     Br  0.16931640  0.74859651  0.58966303     0.00100
Br1688     Br  0.13588120  0.68418494  0.67323026    -0.04300
C1689       C  0.22515215  0.77101641  0.77454884    -0.11700
C1690       C  0.23148460  0.77218472  0.79720303     0.03800
C1691       C  0.22808766  0.79187915  0.80922086    -0.12200
C1692       C  0.21788017  0.81048148  0.79937519     0.18600
C1693       C  0.21112073  0.80916065  0.77691706    -0.09300
C1694       C  0.21477867  0.78960964  0.76479199    -0.02200
H1695       H  0.23351849  0.79269862  0.82641702     0.05200
C1696       C  0.21564474  0.83135932  0.81248529     0.20600
H1697       H  0.20969312  0.78908648  0.74747990     0.10300
C1698       C  0.22594793  0.85081826  0.80464911    -0.15600
C1699       C  0.22585669  0.87034856  0.81729659     0.03300
C1700       C  0.21621217  0.87042870  0.83871279    -0.10900
C1701       C  0.20508040  0.85130445  0.84622182    -0.00900
C1702       C  0.20456885  0.83191557  0.83323869    -0.06100
H1703       H  0.23445879  0.85073596  0.78873666     0.06300
H1704       H  0.19743522  0.85118880  0.86257316     0.09700
Br1705     Br  0.19637091  0.83330915  0.76200957    -0.05800
Br1706     Br  0.24354570  0.74728149  0.81325257    -0.02800
Br1707     Br  0.23874787  0.89660505  0.80437550     0.00100
Br1708     Br  0.18846004  0.80675368  0.84459564    -0.04300
C1709       C  0.27230678  0.70724472  0.75289858    -0.11700
C1710       C  0.28374339  0.69744835  0.73474591     0.03800
C1711       C  0.30245106  0.68423442  0.73862599    -0.12200
C1712       C  0.31042625  0.68085107  0.76024210     0.18600
C1713       C  0.29967802  0.69109630  0.77831041    -0.09300
C1714       C  0.28069413  0.70408850  0.77457780    -0.02200
H1715       H  0.31107403  0.67675621  0.72462832     0.05200
C1716       C  0.33032574  0.66687419  0.76318088     0.20600
H1717       H  0.27239396  0.71160403  0.78871494     0.10300
C1718       C  0.35127861  0.67609117  0.75872545    -0.15600
C1719       C  0.37016058  0.66254607  0.75777517     0.03300
C1720       C  0.36814425  0.63949035  0.76142020    -0.10900
C1721       C  0.34736035  0.63043299  0.76693003    -0.00900
C1722       C  0.32842883  0.64395165  0.76766992    -0.06100
H1723       H  0.35277922  0.69370848  0.75511418     0.06300
H1724       H  0.34567476  0.61264205  0.76945107     0.09700
Br1725     Br  0.31065038  0.68802670  0.80815125    -0.05800
Br1726     Br  0.27627087  0.70275674  0.70411415    -0.02800
Br1727     Br  0.39821231  0.67597641  0.75057803     0.00100
Br1728     Br  0.30011274  0.63022388  0.77304275    -0.04300
C1729       C  0.71644434  0.19383654  0.71913598    -0.11700
C1730       C  0.70729272  0.18837784  0.69810822     0.03800
C1731       C  0.68826395  0.17501993  0.69687609    -0.12200
C1732       C  0.67823772  0.16678933  0.71623850     0.18600
C1733       C  0.68782636  0.17133558  0.73710783    -0.09300
C1734       C  0.70675148  0.18476043  0.73843520    -0.02200
H1735       H  0.68114044  0.17115254  0.68074679     0.05200
C1736       C  0.65748921  0.15387260  0.71446899     0.20600
H1737       H  0.71353249  0.18858569  0.75471805     0.10300
C1738       C  0.65853845  0.13102321  0.70977834    -0.15600
C1739       C  0.63917129  0.11809696  0.70959249     0.03300
C1740       C  0.61844356  0.12816000  0.71392093    -0.10900
C1741       C  0.61738733  0.15111816  0.71806117    -0.00900
C1742       C  0.63672272  0.16401197  0.71828872    -0.06100
H1743       H  0.67451350  0.12313881  0.70694965     0.06300
H1744       H  0.60152229  0.15889934  0.72169790     0.09700
Br1745     Br  0.67541441  0.15976524  0.76420499    -0.05800
Br1746     Br  0.72045636  0.19750846  0.67041729    -0.02800
Br1747     Br  0.64194597  0.08658829  0.70505695     0.00100
Br1748     Br  0.63414254  0.19525854  0.72450567    -0.04300
C1749       C  0.78107074  0.22069342  0.76158373    -0.11700
C1750       C  0.78937602  0.23943027  0.77320746     0.03800
C1751       C  0.80421702  0.23638698  0.79082590    -0.12200
C1752       C  0.81117609  0.21501049  0.79706961     0.18600
C1753       C  0.80279786  0.19633516  0.78571863    -0.09300
C1754       C  0.78779577  0.19926974  0.76818731    -0.02200
H1755       H  0.81025566  0.25079251  0.79987817     0.05200
C1756       C  0.82654488  0.21265502  0.81603413     0.20600
H1757       H  0.78168444  0.18473571  0.75941202     0.10300
C1758       C  0.81881325  0.20288036  0.83580370    -0.15600
C1759       C  0.83213281  0.20247847  0.85486987     0.03300
C1760       C  0.85353669  0.21196600  0.85420404    -0.10900
C1761       C  0.86153589  0.22102678  0.83420277    -0.00900
C1762       C  0.84820972  0.22150669  0.81519777    -0.06100
H1763       H  0.80202911  0.19634617  0.83663105     0.06300
H1764       H  0.87792521  0.22853298  0.83364407     0.09700
Br1765     Br  0.81199432  0.16662182  0.79306419    -0.05800
Br1766     Br  0.78029377  0.26951946  0.76702633    -0.02800
Br1767     Br  0.81951922  0.19084910  0.88184678     0.00100
Br1768     Br  0.86012043  0.23494424  0.78873548    -0.04300
C1769       C  0.76166154  0.36241891  0.63400635    -0.11700
C1770       C  0.75677652  0.36257014  0.65694963     0.03800
C1771       C  0.75732963  0.34269196  0.66898527    -0.12200
C1772       C  0.76256587  0.32259677  0.65835451     0.18600
C1773       C  0.76807495  0.32250378  0.63558793    -0.09300
C1774       C  0.76772146  0.34242811  0.62356656    -0.02200
H1775       H  0.75307611  0.34278454  0.68653389     0.05200
C1776       C  0.76069458  0.30173839  0.67097816     0.20600
H1777       H  0.77119474  0.34218115  0.60584989     0.10300
C1778       C  0.74029566  0.29054754  0.67114851    -0.15600
C1779       C  0.73736546  0.27122291  0.68377529     0.03300
C1780       C  0.75539055  0.26259919  0.69635613    -0.10900
C1781       C  0.77592211  0.27395002  0.69582370    -0.00900
C1782       C  0.77858727  0.29343003  0.68342664    -0.06100
H1783       H  0.72640269  0.29722365  0.66176090     0.06300
H1784       H  0.79000187  0.26782854  0.70528556     0.09700
Br1785     Br  0.77505825  0.29540085  0.62017996    -0.05800
Br1786     Br  0.74877710  0.38940950  0.67234499    -0.02800
Br1787     Br  0.70780150  0.25902601  0.68408471     0.00100
Br1788     Br  0.80673321  0.30846966  0.68427307    -0.04300
C1789       C  0.63727745  0.21578713  0.11167714    -0.11700
C1790       C  0.62523736  0.21383795  0.13172582     0.03800
C1791       C  0.63649756  0.21436878  0.15211484    -0.12200
C1792       C  0.65965119  0.21705465  0.15275068     0.18600
C1793       C  0.67173766  0.21830584  0.13269656    -0.09300
C1794       C  0.66049734  0.21775731  0.11232675    -0.02200
H1795       H  0.62711726  0.21354225  0.16751227     0.05200
C1796       C  0.67082864  0.21999068  0.17439777     0.20600
H1797       H  0.66980488  0.21955622  0.09696743     0.10300
C1798       C  0.67643315  0.20126611  0.18710231    -0.15600
C1799       C  0.68824261  0.20354360  0.20707623     0.03300
C1800       C  0.69461018  0.22496623  0.21457183    -0.10900
C1801       C  0.68803707  0.24371872  0.20219114    -0.00900
C1802       C  0.67632442  0.24136013  0.18223167    -0.06100
H1803       H  0.67184725  0.18480637  0.18129387     0.06300
H1804       H  0.69264997  0.26028850  0.20764391     0.09700
Br1805     Br  0.70348437  0.22161364  0.13244939    -0.05800
Br1806     Br  0.59333471  0.21232858  0.13206215    -0.02800
Br1807     Br  0.69431257  0.17682892  0.22360276     0.00100
Br1808     Br  0.66855693  0.26773508  0.16591428    -0.04300
C1809       C  0.85523937  0.13291732  0.26530242    -0.11700
C1810       C  0.83487263  0.12551628  0.27427738     0.03800
C1811       C  0.81628872  0.13963750  0.27407977    -0.12200
C1812       C  0.81770989  0.16110858  0.26495904     0.18600
C1813       C  0.83828953  0.16877087  0.25676102    -0.09300
C1814       C  0.85679083  0.15464237  0.25685435    -0.02200
H1815       H  0.80050832  0.13361238  0.28039071     0.05200
C1816       C  0.79735042  0.17480765  0.26290156     0.20600
H1817       H  0.87240552  0.16050437  0.24999450     0.10300
C1818       C  0.78813558  0.18489986  0.28184837    -0.15600
C1819       C  0.76919041  0.19845838  0.28017235     0.03300
C1820       C  0.75923978  0.20216784  0.25911846    -0.10900
C1821       C  0.76818186  0.19134575  0.24035529    -0.00900
C1822       C  0.78695455  0.17775252  0.24211330    -0.06100
H1823       H  0.79576173  0.18225485  0.29799190     0.06300
H1824       H  0.76077318  0.19371969  0.22407105     0.09700
Br1825     Br  0.84180945  0.19830092  0.24504783    -0.05800
Br1826     Br  0.83128784  0.09584464  0.28553638    -0.02800
Br1827     Br  0.75712787  0.21021091  0.30738564     0.00100
Br1828     Br  0.79761839  0.16327158  0.21565926    -0.04300
C1829       C  0.71972233  0.27192390  0.27731946    -0.11700
C1830       C  0.69987546  0.28459500  0.27941163     0.03800
C1831       C  0.69967739  0.30383025  0.29263541    -0.12200
C1832       C  0.71888824  0.31096256  0.30370574     0.18600
C1833       C  0.73865292  0.29864645  0.30151678    -0.09300
C1834       C  0.73893876  0.27937640  0.28849284    -0.02200
H1835       H  0.68438167  0.31322844  0.29444352     0.05200
C1836       C  0.71786732  0.33074233  0.31826528     0.20600
H1837       H  0.75440779  0.27021099  0.28712285     0.10300
C1838       C  0.70810517  0.32880624  0.33941452    -0.15600
C1839       C  0.70858689  0.34664361  0.35441938     0.03300
C1840       C  0.71897344  0.36672464  0.34824659    -0.10900
C1841       C  0.72809632  0.36886860  0.32683728    -0.00900
C1842       C  0.72744949  0.35111846  0.31179068    -0.06100
H1843       H  0.70069051  0.31315907  0.34448008     0.06300
H1844       H  0.73603159  0.38431908  0.32195442     0.09700
Br1845     Br  0.76555522  0.30718261  0.31650588    -0.05800
Br1846     Br  0.67206713  0.27648882  0.26585104    -0.02800
Br1847     Br  0.69622011  0.34237427  0.38358097     0.00100
Br1848     Br  0.73999914  0.35532305  0.28270110    -0.04300
C1849       C  0.33681711  0.25934953  0.10546763    -0.11700
C1850       C  0.34521630  0.26543848  0.12650788     0.03800
C1851       C  0.33097316  0.26605412  0.14494682    -0.12200
C1852       C  0.30837643  0.26066609  0.14268066     0.18600
C1853       C  0.29970357  0.25611557  0.12135511    -0.09300
C1854       C  0.31397964  0.25525848  0.10297445    -0.02200
H1855       H  0.33775058  0.26965797  0.16128441     0.05200
C1856       C  0.29474193  0.25773149  0.16296053     0.20600
H1857       H  0.30739468  0.25063162  0.08681584     0.10300
C1858       C  0.28870091  0.27630815  0.17574786    -0.15600
C1859       C  0.27652566  0.27381336  0.19553036     0.03300
C1860       C  0.27022342  0.25226888  0.20280924    -0.10900
C1861       C  0.27661681  0.23374941  0.18994851    -0.00900
C1862       C  0.28880761  0.23630164  0.17032854    -0.06100
H1863       H  0.29367556  0.29280865  0.17040297     0.06300
H1864       H  0.27208869  0.21706891  0.19511311     0.09700
Br1865     Br  0.26866296  0.25022529  0.11674485    -0.05800
Br1866     Br  0.37629268  0.27105431  0.13119099    -0.02800
Br1867     Br  0.27047646  0.30040615  0.21227102     0.00100
Br1868     Br  0.29776946  0.20986318  0.15467697    -0.04300
C1869       C  0.24751985  0.20163737  0.26305139    -0.11700
C1870       C  0.22864558  0.19050731  0.27160012     0.03800
C1871       C  0.23126743  0.17060286  0.28335330    -0.12200
C1872       C  0.25242323  0.16146821  0.28703901     0.18600
C1873       C  0.27114984  0.17180071  0.27748709    -0.09300
C1874       C  0.26858265  0.19169314  0.26553932    -0.02200
H1875       H  0.21671592  0.16245343  0.29022614     0.05200
C1876       C  0.25442303  0.14221248  0.30231388     0.20600
H1877       H  0.28322402  0.19982491  0.25885842     0.10300
C1878       C  0.26066800  0.12117110  0.29415353    -0.15600
C1879       C  0.26054784  0.10245400  0.30817229     0.03300
C1880       C  0.25393029  0.10472998  0.33058210    -0.10900
C1881       C  0.24833174  0.12585406  0.33879251    -0.00900
C1882       C  0.24863748  0.14449736  0.32494827    -0.06100
H1883       H  0.26502130  0.11921255  0.27674470     0.06300
H1884       H  0.24333450  0.12777317  0.35604095     0.09700
Br1885     Br  0.30060310  0.16013220  0.28144826    -0.05800
Br1886     Br  0.19873680  0.20099401  0.26728991    -0.02800
Br1887     Br  0.26808044  0.07399942  0.29575947     0.00100
Br1888     Br  0.24093271  0.17277590  0.33778197    -0.04300
C1889       C  0.21092713  0.27470346  0.25529130    -0.11700
C1890       C  0.20131934  0.27492446  0.27687979     0.03800
C1891       C  0.18210755  0.28756145  0.28095751    -0.12200
C1892       C  0.17255595  0.30046240  0.26404065     0.18600
C1893       C  0.18322232  0.30186480  0.24322815    -0.09300
C1894       C  0.20206718  0.28895146  0.23894122    -0.02200
H1895       H  0.17443120  0.28710846  0.29728796     0.05200
C1896       C  0.15120665  0.31206173  0.26784038     0.20600
H1897       H  0.20934735  0.28959447  0.22244375     0.10300
C1898       C  0.15095530  0.33228363  0.27950527    -0.15600
C1899       C  0.13194053  0.34581050  0.27946227     0.03300
C1900       C  0.11278602  0.33898072  0.26765193    -0.10900
C1901       C  0.11259477  0.31786797  0.25755636    -0.00900
C1902       C  0.13156887  0.30442674  0.25761036    -0.06100
H1903       H  0.16601634  0.33820141  0.28746236     0.06300
H1904       H  0.09796936  0.31233045  0.24856639     0.09700
Br1905     Br  0.17245412  0.32111760  0.22005989    -0.05800
Br1906     Br  0.21402635  0.25939858  0.30181679    -0.02800
Br1907     Br  0.13409979  0.37446112  0.29348076     0.00100
Br1908     Br  0.13042031  0.27640699  0.24223085    -0.04300
C1909       C  0.71913632  0.71472054  0.19810087    -0.11700
C1910       C  0.69808231  0.70502159  0.19384604     0.03800
C1911       C  0.69671922  0.68485309  0.18223335    -0.12200
C1912       C  0.71596062  0.67406171  0.17469321     0.18600
C1913       C  0.73690202  0.68367617  0.17882708    -0.09300
C1914       C  0.73834653  0.70384560  0.19034498    -0.02200
H1915       H  0.68053948  0.67768252  0.17877283     0.05200
C1916       C  0.71389623  0.65333657  0.16161538     0.20600
H1917       H  0.75464736  0.71080303  0.19364529     0.10300
C1918       C  0.71873635  0.65391347  0.13877237    -0.15600
C1919       C  0.71838521  0.63443498  0.12605995     0.03300
C1920       C  0.71276656  0.61402749  0.13613318    -0.10900
C1921       C  0.70719314  0.61352044  0.15881738    -0.00900
C1922       C  0.70779712  0.63301033  0.17162579    -0.06100
H1923       H  0.72334010  0.66950944  0.13094687     0.06300
H1924       H  0.70328940  0.59779357  0.16675697     0.09700
Br1925     Br  0.76403418  0.66947641  0.16970069     0.04600
Br1926     Br  0.67045816  0.71889728  0.20208985    -0.02800
Br1927     Br  0.72639984  0.63632298  0.09516924     0.00100
Br1928     Br  0.70176899  0.63083748  0.20294058    -0.04300
C1929       C  0.76249601  0.78184388  0.21690076    -0.11700
C1930       C  0.77234427  0.79428865  0.23441851     0.03800
C1931       C  0.79190092  0.80621200  0.23053628    -0.12200
C1932       C  0.80220855  0.80599014  0.20965064     0.18600
C1933       C  0.79255284  0.79389953  0.19212557    -0.09300
C1934       C  0.77282700  0.78202609  0.19579614    -0.02200
H1935       H  0.79953360  0.81530250  0.24414491     0.05200
C1936       C  0.82381354  0.81739159  0.20740645     0.20600
H1937       H  0.76571591  0.77266064  0.18211203     0.10300
C1938       C  0.84282231  0.80683511  0.21586449    -0.15600
C1939       C  0.86273236  0.81854908  0.21837117     0.03300
C1940       C  0.86372902  0.84123850  0.21253033    -0.10900
C1941       C  0.84513855  0.85140466  0.20265919    -0.00900
C1942       C  0.82518913  0.83962319  0.20011315    -0.06100
H1943       H  0.84188115  0.78968814  0.22141760     0.06300
H1944       H  0.84578657  0.86883789  0.19804213     0.09700
Br1945     Br  0.80617743  0.79259934  0.16326393    -0.05800
Br1946     Br  0.76164573  0.79463210  0.26462988    -0.02800
Br1947     Br  0.88800450  0.80307283  0.23033414     0.00100
Br1948     Br  0.79981638  0.85486078  0.18813710    -0.04300
C1949       C  0.63250566  0.76305498  0.35987222    -0.11700
C1950       C  0.62357336  0.75580258  0.33943158     0.03800
C1951       C  0.63619419  0.75762922  0.32000748    -0.12200
C1952       C  0.65770552  0.76658282  0.32067241     0.18600
C1953       C  0.66623830  0.77483641  0.34088707    -0.09300
C1954       C  0.65355726  0.77309986  0.36036361    -0.02200
H1955       H  0.62954419  0.75132428  0.30445352     0.05200
C1956       C  0.67171230  0.76486118  0.30063796     0.20600
H1957       H  0.66047916  0.77874110  0.37604937     0.10300
C1958       C  0.67477688  0.78343186  0.28681236    -0.15600
C1959       C  0.68742278  0.78168295  0.26727104     0.03300
C1960       C  0.69699961  0.76104162  0.26141167    -0.10900
C1961       C  0.69380452  0.74254438  0.27531601    -0.00900
C1962       C  0.68140746  0.74434927  0.29485086    -0.06100
H1963       H  0.66711042  0.79919434  0.29111134     0.06300
H1964       H  0.70129172  0.72665623  0.27114063     0.09700
Br1965     Br  0.69561078  0.78714826  0.34283267    -0.05800
Br1966     Br  0.59438664  0.74297679  0.33733912    -0.02800
Br1967     Br  0.68989009  0.80745629  0.24854451     0.00100
Br1968     Br  0.67846934  0.71844515  0.31337511    -0.04300
C1969       C  0.25892938  0.76042394  0.19235049    -0.11700
C1970       C  0.28057501  0.76659355  0.18543327     0.03800
C1971       C  0.28338741  0.78420427  0.17028979    -0.12200
C1972       C  0.26494614  0.79582315  0.16183858     0.18600
C1973       C  0.24340238  0.78927842  0.16829785    -0.09300
C1974       C  0.24058402  0.77177969  0.18329963    -0.02200
H1975       H  0.30000930  0.78890951  0.16512938     0.05200
C1976       C  0.26803578  0.81516485  0.14683914     0.20600
H1977       H  0.22383106  0.76742042  0.18833928     0.10300
C1978       C  0.25986389  0.81401511  0.12495301    -0.15600
C1979       C  0.25808780  0.83321762  0.11189442     0.03300
C1980       C  0.26478621  0.85391561  0.12062274    -0.10900
C1981       C  0.27468031  0.85479555  0.14176429    -0.00900
C1982       C  0.27633190  0.83559498  0.15491472    -0.06100
H1983       H  0.25374856  0.79832741  0.11846375     0.06300
H1984       H  0.28007506  0.87064481  0.14849652     0.09700
Br1985     Br  0.21716121  0.80441241  0.15801149    -0.05800
Br1986     Br  0.30678212  0.75101120  0.19500580    -0.02800
Br1987     Br  0.24577560  0.83059683  0.08250674     0.00100
Br1988     Br  0.28823403  0.83850565  0.18443660    -0.04300
C1989       C  0.10533949  0.64532359  0.21510283    -0.11700
C1990       C  0.10666722  0.66711399  0.22377413     0.03800
C1991       C  0.12691520  0.67855285  0.22330357    -0.12200
C1992       C  0.14612432  0.66846231  0.21467244     0.18600
C1993       C  0.14483138  0.64666532  0.20606614    -0.09300
C1994       C  0.12443650  0.63543121  0.20598348    -0.02200
H1995       H  0.12782970  0.69520632  0.23020956     0.05200
C1996       C  0.16758720  0.68033544  0.21649165     0.20600
H1997       H  0.12373633  0.61844971  0.19990428     0.10300
C1998       C  0.17651511  0.68413204  0.23771292    -0.15600
C1999       C  0.19658941  0.69557573  0.24042752     0.03300
C2000       C  0.20835364  0.70327520  0.22147937    -0.10900
C2001       C  0.19908825  0.69969312  0.20022711    -0.00900
C2002       C  0.17884977  0.68848817  0.19764387    -0.06100
H2003       H  0.16763424  0.67832492  0.25231727     0.06300
H2004       H  0.20757605  0.70568934  0.18547735     0.09700
Br2005     Br  0.17079677  0.63079661  0.19631877    -0.05800
Br2006     Br  0.08145273  0.68178492  0.23685376    -0.02800
Br2007     Br  0.20569947  0.70138292  0.27058052     0.00100
Br2008     Br  0.16676745  0.68559882  0.16818285    -0.04300
C2009       C  0.27719208  0.72079458  0.26238380    -0.11700
C2010       C  0.28029584  0.69976861  0.27257431     0.03800
C2011       C  0.29226741  0.69811940  0.29251903    -0.12200
C2012       C  0.30111097  0.71711281  0.30275381     0.18600
C2013       C  0.29856220  0.73800152  0.29236812    -0.09300
C2014       C  0.28677934  0.73968412  0.27232182    -0.02200
H2015       H  0.29449708  0.68195268  0.30022847     0.05200
C2016       C  0.31306119  0.71483254  0.32418150     0.20600
H2017       H  0.28459105  0.75594459  0.26480620     0.10300
C2018       C  0.33436769  0.70526692  0.32447055    -0.15600
C2019       C  0.34678289  0.70444035  0.34421369     0.03300
C2020       C  0.33786632  0.71341551  0.36401791    -0.10900
C2021       C  0.31615782  0.72204352  0.36387504    -0.00900
C2022       C  0.30365571  0.72254458  0.34423974    -0.06100
H2023       H  0.34160272  0.69902779  0.30915269     0.06300
H2024       H  0.30905626  0.72875520  0.37905757     0.09700
Br2025     Br  0.31089947  0.76467624  0.30494887    -0.05800
Br2026     Br  0.26945191  0.67254114  0.25975994    -0.02800
Br2027     Br  0.37633184  0.69236869  0.34288616     0.00100
Br2028     Br  0.27381332  0.73384534  0.34557977    -0.04300
C2029       C  0.77703732  0.74653463  0.71945215    -0.11700
C2030       C  0.78442716  0.76801510  0.71335817     0.03800
C2031       C  0.79771447  0.77082416  0.69441867    -0.12200
C2032       C  0.80388991  0.75251504  0.68134756     0.18600
C2033       C  0.79681862  0.73102725  0.68753880    -0.09300
C2034       C  0.78356534  0.72816210  0.70652142    -0.02200
H2035       H  0.80347107  0.78733908  0.68998421     0.05200
C2036       C  0.81853062  0.75601527  0.66187623     0.20600
H2037       H  0.77790561  0.71159583  0.71088769     0.10300
C2038       C  0.84123084  0.75109152  0.66384809    -0.15600
C2039       C  0.85543624  0.75303440  0.64551060     0.03300
C2040       C  0.84697058  0.76007996  0.62475212    -0.10900
C2041       C  0.82441633  0.76591650  0.62302436    -0.00900
C2042       C  0.81017552  0.76388700  0.64140923    -0.06100
H2043       H  0.84782054  0.74530134  0.67962497     0.06300
H2044       H  0.81764994  0.77098844  0.60707750     0.09700
Br2045     Br  0.80439206  0.70527035  0.67018291    -0.05800
Br2046     Br  0.77810095  0.79392500  0.73101348    -0.02800
Br2047     Br  0.88623061  0.74554517  0.64952878     0.00100
Br2048     Br  0.77922742  0.77064269  0.63750871    -0.04300
C2049       C  0.75401484  0.70412274  0.78612221    -0.11700
C2050       C  0.73633499  0.69377989  0.79785493     0.03800
C2051       C  0.74078648  0.67621958  0.81247952    -0.12200
C2052       C  0.76252278  0.66851448  0.81591182     0.18600
C2053       C  0.78015884  0.67860938  0.80431241    -0.09300
C2054       C  0.77583805  0.69621682  0.78959965    -0.02200
H2055       H  0.72706690  0.66818900  0.82101451     0.05200
C2056       C  0.76590243  0.64912971  0.83078966     0.20600
H2057       H  0.78970052  0.70386087  0.78097108     0.10300
C2058       C  0.77209822  0.62856793  0.82150595    -0.15600
C2059       C  0.77142672  0.60907111  0.83427164     0.03300
C2060       C  0.76433094  0.60999786  0.85658512    -0.10900
C2061       C  0.75932748  0.63067935  0.86622685    -0.00900
C2062       C  0.76022612  0.65020650  0.85355382    -0.06100
H2063       H  0.77633644  0.62751053  0.80399016     0.06300
H2064       H  0.75379745  0.63149652  0.88339531     0.09700
Br2065     Br  0.81040325  0.66927922  0.80852250    -0.05800
Br2066     Br  0.70548013  0.70133779  0.79399679    -0.02800
Br2067     Br  0.77833134  0.58126172  0.82011533     0.00100
Br2068     Br  0.75288646  0.67788081  0.86778815    -0.04300
C2069       C  0.70824373  0.76674731  0.75824955    -0.11700
C2070       C  0.69851988  0.77413211  0.77839944     0.03800
C2071       C  0.67934373  0.78747291  0.77783610    -0.12200
C2072       C  0.66946927  0.79343778  0.75749256     0.18600
C2073       C  0.67885149  0.78560782  0.73748163    -0.09300
C2074       C  0.69808734  0.77257803  0.73798682    -0.02200
H2075       H  0.67233529  0.79358258  0.79331002     0.05200
C2076       C  0.65013553  0.80876294  0.75718741     0.20600
H2077       H  0.70501985  0.76675936  0.72236484     0.10300
C2078       C  0.65277393  0.83004395  0.74790411    -0.15600
C2079       C  0.63463370  0.84444715  0.74565742     0.03300
C2080       C  0.61344215  0.83784303  0.75323938    -0.10900
C2081       C  0.61092249  0.81688416  0.76328571    -0.00900
C2082       C  0.62903732  0.80226222  0.76510999    -0.06100
H2083       H  0.66895233  0.83524360  0.74186431     0.06300
H2084       H  0.59463193  0.81152981  0.76886035     0.09700
Br2085     Br  0.66565059  0.79173226  0.70900361    -0.05800
Br2086     Br  0.71134280  0.76795713  0.80703820    -0.02800
Br2087     Br  0.63959483  0.87286329  0.73186956     0.00100
Br2088     Br  0.62383835  0.77302411  0.77687377    -0.04300
loop_ 
_geom_bond_atom_site_label_1 
_geom_bond_atom_site_label_2 
_geom_bond_distance 
_geom_bond_site_symmetry_2 
_ccdc_geom_bond_type 
C1            N2   1.356       .  A
C1            N6   1.360       .  A
C1         C2029   1.478       .  S
N2            C3   1.357       .  A
C3            N4   1.357       .  A
C3         C2069   1.482       .  S
N4            C5   1.360       .  A
C5            N6   1.363       .  A
C5         C2049   1.490       .  S
C7            N8   1.355       .  A
C7           N12   1.356       .  A
C7         C2000   1.485       .  S
N8            C9   1.357       .  A
C9           N10   1.362       .  A
C9         C2009   1.482       .  S
N10          C11   1.361       .  A
C11          N12   1.359       .  A
C11        C1969   1.485       .  S
C13          N14   1.355       .  A
C13          N18   1.356       .  A
C13        C1960   1.471       .  S
N14          C15   1.355       .  A
C15          N16   1.361       .  A
C15        C1909   1.481       .  S
N16          C17   1.361       .  A
C17          N18   1.358       .  A
C17        C1929   1.488       .  S
C19          N20   1.360       .  A
C19          N24   1.359       .  A
C19        C1860   1.486       .  S
N20          C21   1.357       .  A
C21          N22   1.357       .  A
C21        C1869   1.481       .  S
N22          C23   1.357       .  A
C23          N24   1.361       .  A
C23        C1889   1.487       .  S
C25          N26   1.358       .  A
C25          N30   1.361       .  A
C25        C1829   1.489       .  S
N26          C27   1.359       .  A
C27          N28   1.356       .  A
C27        C1800   1.480       .  S
N28          C29   1.357       .  A
C29          N30   1.358       .  A
C29        C1820   1.484       .  S
C31          N32   1.359       .  A
C31          N36   1.358       .  A
C31        C1729   1.480       .  S
N32          C33   1.358       .  A
C33          N34   1.354       .  A
C33        C1749   1.475       .  S
N34          C35   1.356       .  A
C35          N36   1.356       .  A
C35        C1780   1.484       .  S
C37          N38   1.359       .  A
C37          N42   1.359       .  A
C37        C1689   1.484       .  S
N38          C39   1.359       .  A
C39          N40   1.358       .  A
C39        C1709   1.482       .  S
N40          C41   1.358       .  A
C41          N42   1.357       .  A
C41        C1669   1.487       .  S
O43         Mg45   2.120       .  S
O43         Mg51   2.144       .  S
O43          C78   1.237       .  S
C44          O57   1.237       .  S
C44          O81   1.271       .  A
C44          H83   1.082       .  S
Mg45         O74   2.144   1_556  S
Mg45         O89   2.302       .  S
Mg45         O85   2.216   1_455  S
Mg45         O56   2.295   1_455  S
O46         Mg88   2.153       .  S
O46         Mg71   2.127       .  S
O46          C67   1.237       .  S
O47          C78   1.269   1_565  A
O47         Mg71   2.288   1_556  S
C48        C1660   1.500       .  S
C48          O50   1.277       .  A
C48          O62   1.274       .  A
O49          C77   1.272       .  A
O49         Mg51   2.308   1_554  S
O50         Mg82   2.314       .  S
Mg51         O57   2.138   1_556  S
Mg51         O65   2.288       .  S
Mg51         O53   2.340       .  S
C52        C1629   1.478       .  S
C52          O90   1.270       .  A
C52          O58   1.279   1_655  A
O53          C60   1.278   1_545  A
H54          C67   1.081       .  S
C55          O69   1.237       .  S
C55          O70   1.272       .  A
C55          H80   1.082       .  S
O56          C79   1.271   1_556  A
O57         Mg71   2.146   1_545  S
O58         Mg88   2.335       .  S
C59        C1569   1.491       .  S
C59          O72   1.276       .  A
C59          O64   1.269       .  A
C60        C1549   1.491       .  S
C60          O87   1.271       .  A
Mg61         O68   2.127       .  S
Mg61         O69   2.146   1_655  S
Mg61         O62   2.287       .  S
Mg61         O63   2.291   1_545  S
Mg61         O90   2.233   1_545  S
O63          C67   1.270   1_655  A
O64         Mg71   2.273       .  S
O65          C84   1.276       .  A
O66          C86   1.280   1_554  A
O66         Mg82   2.347       .  S
O68         Mg82   2.151       .  S
O68          C79   1.238       .  S
O69         Mg88   2.146   1_545  S
O70         Mg82   2.303   1_455  S
Mg71         O87   2.237   1_554  S
O72         Mg88   2.294       .  S
H73          C78   1.081       .  S
O74         Mg82   2.155   1_455  S
O74          C77   1.237       .  S
H75          C77   1.082       .  S
H76          C79   1.081       .  S
O81         Mg88   2.302   1_545  S
C84        C1620   1.496       .  S
C84          O89   1.273       .  A
O85          C86   1.269       .  A
C86        C1589   1.480       .  S
C91        C1529   1.482       .  S
C91          C92   1.406       .  A
C91          C96   1.407       .  A
C92          H97   1.084       .  S
C92          C93   1.406       .  A
C93        C1609   1.483       .  S
C93          C94   1.402       .  A
C94          H98   1.084       .  S
C94          C95   1.403       .  A
C95        C1509   1.479       .  S
C95          C96   1.404       .  A
C96          H99   1.084       .  S
C100       C1489   1.489       .  S
C100        C101   1.408       .  A
C100        C105   1.407       .  A
C101        H106   1.084       .  S
C101        C102   1.406       .  A
C102       C1809   1.478       .  S
C102        C103   1.403       .  A
C103        H107   1.084       .  S
C103        C104   1.401       .  A
C104       C1649   1.482       .  S
C104        C105   1.402       .  A
C105        H108   1.084       .  S
C109       C1469   1.474       .  S
C109        C110   1.404       .  A
C109        C114   1.401       .  A
C110        H115   1.084       .  S
C110        C111   1.402       .  A
C111       C1980   1.475       .  S
C111        C112   1.405       .  A
C112        H116   1.084       .  S
C112        C113   1.403       .  A
C113       C1580   1.480       .  S
C113        C114   1.400       .  A
C114        H117   1.084       .  S
O118       Mg120   2.128       .  S
O118       Mg126   2.162       .  S
O118        C153   1.237       .  S
C119        O132   1.237       .  S
C119        O156   1.271       .  A
C119        H158   1.082       .  S
Mg120       O149   2.144       .  S
Mg120       O164   2.271       .  S
Mg120       O160   2.239       .  S
Mg120       O131   2.295       .  S
O121       Mg163   2.156       .  S
O121       Mg146   2.137       .  S
O121        C142   1.237   1_655  S
O122        C153   1.270       .  A
O122       Mg146   2.291       .  S
C123       C1369   1.466       .  S
C123        O125   1.274       .  A
C123        O137   1.271       .  A
O124        C152   1.270       .  A
O124       Mg126   2.300       .  S
O125       Mg157   2.282       .  S
Mg126       O132   2.139       .  S
Mg126       O140   2.297       .  S
Mg126       O128   2.335       .  S
C127       C1349   1.478       .  S
C127        O165   1.270   1_455  A
C127        O133   1.279       .  A
O128        C135   1.279       .  A
H129        C142   1.081       .  S
C130        O144   1.235       .  S
C130        O145   1.269       .  A
C130        H155   1.082       .  S
O131        C154   1.271       .  A
O132       Mg146   2.146       .  S
O133       Mg163   2.338   1_455  S
C134       C1409   1.489       .  S
C134        O147   1.272       .  A
C134        O139   1.273       .  A
C135       C1389   1.488       .  S
C135        O162   1.272       .  A
Mg136       O143   2.138       .  S
Mg136       O144   2.143       .  S
Mg136       O137   2.277       .  S
Mg136       O138   2.295       .  S
Mg136       O165   2.243       .  S
O138        C142   1.270   1_655  A
O139       Mg146   2.271   1_455  S
O140        C159   1.275       .  A
O141        C161   1.277       .  A
O141       Mg157   2.330       .  S
O143       Mg157   2.165       .  S
O143        C154   1.238       .  S
O144       Mg163   2.134       .  S
O145       Mg157   2.295       .  S
Mg146       O162   2.253       .  S
O147       Mg163   2.278   1_455  S
H148        C153   1.081       .  S
O149       Mg157   2.139       .  S
O149        C152   1.236       .  S
H150        C152   1.081       .  S
H151        C154   1.081       .  S
O156       Mg163   2.301       .  S
C159       C1449   1.494       .  S
C159        O164   1.272       .  A
O160        C161   1.270       .  A
C161       C1429   1.492       .  S
C166       C1340   1.482       .  S
C166        C167   1.406       .  A
C166        C171   1.405       .  A
C167        H172   1.084       .  S
C167        C168   1.402       .  A
C168       C1460   1.477       .  S
C168        C169   1.399       .  A
C169        H173   1.084       .  S
C169        C170   1.400       .  A
C170       C1840   1.473       .  S
C170        C171   1.403       .  A
C171        H174   1.084       .  S
C175       C1309   1.484       .  S
C175        C176   1.409       .  A
C175        C180   1.404       .  A
C176        H181   1.084       .  S
C176        C177   1.407       .  A
C177       C1989   1.477       .  S
C177        C178   1.400       .  A
C178        H182   1.084       .  S
C178        C179   1.397       .  A
C179       C1420   1.471       .  S
C179        C180   1.397       .  A
C180        H183   1.084       .  S
C184       C1289   1.490       .  S
C184        C185   1.409       .  A
C184        C189   1.411       .  A
C185        H190   1.083       .  S
C185        C186   1.404       .  A
C186       C1380   1.481       .  S
C186        C187   1.397       .  A
C187        H191   1.084       .  S
C187        C188   1.398       .  A
C188       C2040   1.478       .  S
C188        C189   1.406       .  A
C189        H192   1.083       .  S
O193       Mg195   2.127       .  S
O193       Mg201   2.151   1_455  S
O193        C228   1.237       .  S
C194        O207   1.237       .  S
C194        O231   1.272       .  A
C194        H233   1.085       .  S
Mg195       O224   2.151       .  S
Mg195       O239   2.284   1_455  S
Mg195       O235   2.235       .  S
Mg195       O206   2.291       .  S
O196       Mg238   2.140   1_565  S
O196       Mg221   2.114       .  S
O196        C217   1.236       .  S
O197        C228   1.271       .  A
O197       Mg221   2.298       .  S
C198       C1249   1.476       .  S
C198        O200   1.274       .  A
C198        O212   1.269       .  A
O199        C227   1.272       .  A
O199       Mg201   2.306       .  S
O200       Mg232   2.295       .  S
Mg201       O207   2.155       .  S
Mg201       O215   2.298       .  S
Mg201       O203   2.335       .  S
C202       C1269   1.475       .  S
C202        O240   1.269       .  A
C202        O208   1.277       .  A
O203        C210   1.277       .  A
H204        C217   1.082       .  S
C205        O219   1.237       .  S
C205        O220   1.271       .  A
C205        H230   1.082   1_565  S
O206        C229   1.269       .  A
O207       Mg221   2.144   1_655  S
O208       Mg238   2.327       .  S
C209       C1500   1.492       .  S
C209        O222   1.272   1_655  A
C209        O214   1.277   1_545  A
C210       C1220   1.487       .  S
C210        O237   1.271       .  A
Mg211       O218   2.120       .  S
Mg211       O219   2.145       .  S
Mg211       O212   2.256       .  S
Mg211       O213   2.288       .  S
Mg211       O240   2.230   1_565  S
O213        C217   1.268       .  A
O214       Mg221   2.305   1_655  S
O215        C234   1.275       .  A
O216        C236   1.275       .  A
O216       Mg232   2.307       .  S
O218       Mg232   2.153       .  S
O218        C229   1.236       .  S
O219       Mg238   2.135   1_565  S
O220       Mg232   2.297       .  S
Mg221       O237   2.225   1_455  S
O222       Mg238   2.277       .  S
H223        C228   1.081       .  S
O224       Mg232   2.153       .  S
O224        C227   1.237   1_455  S
H225        C227   1.083       .  S
H226        C229   1.081       .  S
O231       Mg238   2.308   1_665  S
C234       C1300   1.485       .  S
C234        O239   1.273       .  A
O235        C236   1.270       .  A
C236       C1229   1.469       .  S
C241       C1360   1.485       .  S
C241        C242   1.404       .  A
C241        C246   1.408       .  A
C242        H247   1.084       .  S
C242        C243   1.401       .  A
C243       C1240   1.477       .  S
C243        C244   1.396       .  A
C244        H248   1.084       .  S
C244        C245   1.401       .  A
C245       C1680   1.479       .  S
C245        C246   1.406       .  A
C246        H249   1.083       .  S
C250       C1189   1.483       .  S
C250        C251   1.405       .  A
C250        C255   1.407       .  A
C251        H256   1.084       .  S
C251        C252   1.401       .  A
C252       C1280   1.481       .  S
C252        C253   1.400       .  A
C253        H257   1.084       .  S
C253        C254   1.402       .  A
C254       C1880   1.477       .  S
C254        C255   1.405       .  A
C255        H258   1.084       .  S
C259       C1640   1.477       .  S
C259        C260   1.405       .  A
C259        C264   1.403       .  A
C260        H265   1.084       .  S
C260        C261   1.402       .  A
C261       C1940   1.475       .  S
C261        C262   1.403       .  A
C262        H266   1.084       .  S
C262        C263   1.399       .  A
C263       C1209   1.476       .  S
C263        C264   1.403       .  A
C264        H267   1.084       .  S
O268       Mg270   2.127       .  S
O268       Mg276   2.157       .  S
O268        C303   1.237       .  S
C269        O282   1.236       .  S
C269        O306   1.271       .  A
C269        H308   1.083       .  S
Mg270       O299   2.143       .  S
Mg270       O314   2.269       .  S
Mg270       O310   2.236       .  S
Mg270       O281   2.291       .  S
O271       Mg313   2.157       .  S
O271       Mg296   2.137       .  S
O271        C292   1.238   1_556  S
O272        C303   1.270       .  A
O272       Mg296   2.295       .  S
C273       C1089   1.487       .  S
C273        O275   1.275       .  A
C273        O287   1.270       .  A
O274        C302   1.270       .  A
O274       Mg276   2.298       .  S
O275       Mg307   2.282       .  S
Mg276       O282   2.146       .  S
Mg276       O290   2.300       .  S
Mg276       O278   2.334       .  S
C277       C1080   1.483       .  S
C277        O315   1.272   1_554  A
C277        O283   1.276       .  A
O278        C285   1.279       .  A
H279        C292   1.081       .  S
C280        O294   1.236       .  S
C280        O295   1.269       .  A
C280        H305   1.081       .  S
O281        C304   1.270       .  A
O282       Mg296   2.144       .  S
O283       Mg313   2.318   1_554  S
C284       C1129   1.477       .  S
C284        O297   1.271       .  A
C284        O289   1.272       .  A
C285       C1120   1.479       .  S
C285        O312   1.271       .  A
Mg286       O293   2.130       .  S
Mg286       O294   2.141       .  S
Mg286       O287   2.269       .  S
Mg286       O288   2.295       .  S
Mg286       O315   2.262       .  S
O288        C292   1.271   1_556  A
O289       Mg296   2.280   1_554  S
O290        C309   1.275       .  A
O291        C311   1.278       .  A
O291       Mg307   2.324       .  S
O293       Mg307   2.159       .  S
O293        C304   1.237       .  S
O294       Mg313   2.116       .  S
O295       Mg307   2.294       .  S
Mg296       O312   2.244       .  S
O297       Mg313   2.257   1_554  S
H298        C303   1.081       .  S
O299       Mg307   2.135       .  S
O299        C302   1.236       .  S
H300        C302   1.082       .  S
H301        C304   1.081       .  S
O306       Mg313   2.304       .  S
C309       C1169   1.494       .  S
C309        O314   1.272       .  A
O310        C311   1.268       .  A
C311       C1149   1.484       .  S
C316       C1049   1.482       .  S
C316        C317   1.407       .  A
C316        C321   1.406       .  A
C317        H322   1.084       .  S
C317        C318   1.406       .  A
C318       C1029   1.479       .  S
C318        C319   1.402       .  A
C319        H323   1.084       .  S
C319        C320   1.400       .  A
C320       C1180   1.483       .  S
C320        C321   1.403       .  A
C321        H324   1.084       .  S
C325       C1020   1.476       .  S
C325        C326   1.403       .  A
C325        C330   1.405       .  A
C326        H331   1.084       .  S
C326        C327   1.400       .  A
C327       C1789   1.470       .  S
C327        C328   1.397       .  A
C328        H332   1.084       .  S
C328        C329   1.402       .  A
C329       C1140   1.483       .  S
C329        C330   1.406       .  A
C330        H333   1.083       .  S
C334        C989   1.485       .  S
C334        C335   1.407       .  A
C334        C339   1.408       .  A
C335        H340   1.084       .  S
C335        C336   1.404       .  A
C336       C1100   1.479       .  S
C336        C337   1.399       .  A
C337        H341   1.085       .  S
C337        C338   1.398       .  A
C338       C2060   1.473       .  S
C338        C339   1.403       .  A
C339        H342   1.084       .  S
O343       Mg345   2.130       .  S
O343       Mg351   2.145       .  S
O343        C378   1.237       .  S
C344        O357   1.238       .  S
C344        O381   1.272   1_554  A
C344        H383   1.082       .  S
Mg345       O374   2.153       .  S
Mg345       O389   2.293       .  S
Mg345       O385   2.230   1_655  S
Mg345       O356   2.290       .  S
O346       Mg388   2.141   1_554  S
O346       Mg371   2.112       .  S
O346        C367   1.236       .  S
O347        C378   1.270       .  A
O347       Mg371   2.297       .  S
C348       C1540   1.489   1_554  S
C348        O350   1.277       .  A
C348        O362   1.274   1_454  A
O349        C377   1.274       .  A
O349       Mg351   2.313       .  S
O350       Mg382   2.309       .  S
Mg351       O357   2.141       .  S
Mg351       O365   2.280       .  S
Mg351       O353   2.335       .  S
C352        C929   1.465       .  S
C352        O390   1.268       .  A
C352        O358   1.275       .  A
O353        C360   1.277       .  A
H354        C367   1.081       .  S
C355        O369   1.237       .  S
C355        O370   1.271       .  A
C355        H380   1.082       .  S
O356        C379   1.268       .  A
O357       Mg371   2.145       .  S
O358       Mg388   2.308       .  S
C359       C1000   1.483       .  S
C359        O372   1.274       .  A
C359        O364   1.274       .  A
C360        C960   1.468       .  S
C360        O387   1.268       .  A
Mg361       O368   2.114       .  S
Mg361       O369   2.151   1_554  S
Mg361       O362   2.294   1_554  S
Mg361       O363   2.287       .  S
Mg361       O390   2.219   1_554  S
O363        C367   1.269       .  A
O364       Mg371   2.291   1_556  S
O365        C384   1.273       .  A
O366        C386   1.276       .  A
O366       Mg382   2.324       .  S
O368       Mg382   2.145   1_655  S
O368        C379   1.235       .  S
O369       Mg388   2.151       .  S
O370       Mg382   2.301   1_656  S
Mg371       O387   2.224       .  S
O372       Mg388   2.290       .  S
H373        C378   1.082       .  S
O374       Mg382   2.167   1_655  S
O374        C377   1.238       .  S
H375        C377   1.081   1_455  S
H376        C379   1.081       .  S
O381       Mg388   2.303       .  S
C384       C1320   1.489       .  S
C384        O389   1.274       .  A
O385        C386   1.271       .  A
C386        C969   1.481       .  S
C391       C1069   1.477       .  S
C391        C392   1.406       .  A
C391        C396   1.403       .  A
C392        H397   1.084       .  S
C392        C393   1.404       .  A
C393       C1920   1.472       .  S
C393        C394   1.399       .  A
C394        H398   1.084       .  S
C394        C395   1.399       .  A
C395        C949   1.477       .  S
C395        C396   1.404       .  A
C396        H399   1.084       .  S
C400       C1400   1.482       .  S
C400        C401   1.404       .  A
C400        C405   1.407       .  A
C401        H406   1.084       .  S
C401        C402   1.402       .  A
C402        C980   1.478       .  S
C402        C403   1.398       .  A
C403        H407   1.084       .  S
C403        C404   1.404       .  A
C404       C1900   1.482       .  S
C404        C405   1.407       .  A
C405        H408   1.083       .  S
C409       C1600   1.477       .  S
C409        C410   1.405       .  A
C409        C414   1.402       .  A
C410        H415   1.084       .  S
C410        C411   1.404       .  A
C411       C1760   1.470       .  S
C411        C412   1.398       .  A
C412        H416   1.085       .  S
C412        C413   1.393       .  A
C413        C940   1.468       .  S
C413        C414   1.399       .  A
C414        H417   1.084       .  S
O418       Mg420   2.141       .  S
O418       Mg426   2.157       .  S
O418        C453   1.238       .  S
C419        O432   1.235       .  S
C419        O456   1.269       .  A
C419        H458   1.082       .  S
Mg420       O449   2.144       .  S
Mg420       O464   2.261       .  S
Mg420       O460   2.252   1_545  S
Mg420       O431   2.290   1_545  S
O421       Mg463   2.158       .  S
O421       Mg446   2.124       .  S
O421        C442   1.238   1_556  S
O422        C453   1.272       .  A
O422       Mg446   2.299       .  S
C423        C860   1.494       .  S
C423        O425   1.275       .  A
C423        O437   1.272       .  A
O424        C452   1.271       .  A
O424       Mg426   2.303       .  S
O425       Mg457   2.295       .  S
Mg426       O432   2.127       .  S
Mg426       O440   2.281       .  S
Mg426       O428   2.330       .  S
C427       C1480   1.487       .  S
C427        O465   1.269   1_554  A
C427        O433   1.276   1_565  A
O428        C435   1.278       .  A
H429        C442   1.081       .  S
C430        O444   1.236       .  S
C430        O445   1.270       .  A
C430        H455   1.081       .  S
O431        C454   1.270       .  A
O432       Mg446   2.138       .  S
O433       Mg463   2.322   1_554  S
C434        C920   1.492       .  S
C434        O447   1.276       .  A
C434        O439   1.273       .  A
C435       C1009   1.489       .  S
C435        O462   1.272       .  A
Mg436       O443   2.123       .  S
Mg436       O444   2.143   1_565  S
Mg436       O437   2.268       .  S
Mg436       O438   2.290       .  S
Mg436       O465   2.223       .  S
O438        C442   1.271   1_566  A
O439       Mg446   2.290   1_554  S
O440        C459   1.272       .  A
O441        C461   1.280       .  A
O441       Mg457   2.340       .  S
O443       Mg457   2.160       .  S
O443        C454   1.237       .  S
O444       Mg463   2.142       .  S
O445       Mg457   2.300   1_545  S
Mg446       O462   2.248       .  S
O447       Mg463   2.286   1_554  S
H448        C453   1.081       .  S
O449       Mg457   2.133   1_545  S
O449        C452   1.237       .  S
H450        C452   1.082       .  S
H451        C454   1.081       .  S
O456       Mg463   2.294       .  S
C459        C900   1.488       .  S
C459        O464   1.271       .  A
O460        C461   1.270       .  A
C461        C869   1.490       .  S
C466        C840   1.482       .  S
C466        C467   1.406       .  A
C466        C471   1.407       .  A
C467        H472   1.084       .  S
C467        C468   1.401       .  A
C468        C889   1.473       .  S
C468        C469   1.397       .  A
C469        H473   1.085       .  S
C469        C470   1.398       .  A
C470       C1740   1.472       .  S
C470        C471   1.404       .  A
C471        H474   1.084       .  S
C475       C1109   1.486       .  S
C475        C476   1.407       .  A
C475        C480   1.408       .  A
C476        H481   1.084       .  S
C476        C477   1.402       .  A
C477        C909   1.473       .  S
C477        C478   1.396       .  A
C478        H482   1.084       .  S
C478        C479   1.401       .  A
C479       C1849   1.474       .  S
C479        C480   1.404       .  A
C480        H483   1.084       .  S
C484       C1560   1.487       .  S
C484        C485   1.409       .  A
C484        C489   1.408       .  A
C485        H490   1.084       .  S
C485        C486   1.405       .  A
C486       C1700   1.481       .  S
C486        C487   1.400       .  A
C487        H491   1.084       .  S
C487        C488   1.399       .  A
C488        C849   1.483       .  S
C488        C489   1.404       .  A
C489        H492   1.083       .  S
O493       Mg495   2.108       .  S
O493       Mg501   2.143       .  S
O493        C528   1.235       .  S
C494        O507   1.238       .  S
C494        O531   1.272       .  A
C494        H533   1.083       .  S
Mg495       O524   2.149       .  S
Mg495       O539   2.287       .  S
Mg495       O535   2.219       .  S
Mg495       O506   2.291       .  S
O496       Mg538   2.144       .  S
O496       Mg521   2.115       .  S
O496        C517   1.235       .  S
O497        C528   1.267       .  A
O497       Mg521   2.283       .  S
C498       C1060   1.483       .  S
C498        O500   1.274       .  A
C498        O512   1.272       .  A
O499        C527   1.272       .  A
O499       Mg501   2.304       .  S
O500       Mg532   2.295       .  S
Mg501       O507   2.146       .  S
Mg501       O515   2.288       .  S
Mg501       O503   2.326       .  S
C502        C749   1.468       .  S
C502        O540   1.269       .  A
C502        O508   1.275       .  A
O503        C510   1.278       .  A
H504        C517   1.082       .  S
C505        O519   1.238       .  S
C505        O520   1.272       .  A
C505        H530   1.081       .  S
O506        C529   1.269       .  A
O507       Mg521   2.154       .  S
O508       Mg538   2.315       .  S
C509        C780   1.476       .  S
C509        O522   1.272       .  A
C509        O514   1.271       .  A
C510        C789   1.477       .  S
C510        O537   1.268       .  A
Mg511       O518   2.117       .  S
Mg511       O519   2.146       .  S
Mg511       O512   2.273       .  S
Mg511       O513   2.292       .  S
Mg511       O540   2.236       .  S
O513        C517   1.268       .  A
O514       Mg521   2.269       .  S
O515        C534   1.274       .  A
O516        C536   1.275       .  A
O516       Mg532   2.314       .  S
O518       Mg532   2.151       .  S
O518        C529   1.237       .  S
O519       Mg538   2.142       .  S
O520       Mg532   2.302       .  S
Mg521       O537   2.222       .  S
O522       Mg538   2.276       .  S
H523        C528   1.081       .  S
O524       Mg532   2.153       .  S
O524        C527   1.238       .  S
H525        C527   1.082       .  S
H526        C529   1.081       .  S
O531       Mg538   2.303       .  S
C534       C1329   1.484       .  S
C534        O539   1.274       .  A
O535        C536   1.268       .  A
C536        C809   1.465       .  S
C541        C729   1.476       .  S
C541        C542   1.403       .  A
C541        C546   1.403       .  A
C542        H547   1.084       .  S
C542        C543   1.400       .  A
C543       C1949   1.470       .  S
C543        C544   1.401       .  A
C544        H548   1.084       .  S
C544        C545   1.400       .  A
C545        C800   1.478       .  S
C545        C546   1.402       .  A
C546        H549   1.084       .  S
C550       C1160   1.473       .  S
C550        C551   1.403       .  A
C550        C555   1.401       .  A
C551        H556   1.084       .  S
C551        C552   1.401       .  A
C552       C1720   1.470       .  S
C552        C553   1.401       .  A
C553        H557   1.084       .  S
C553        C554   1.400       .  A
C554        C760   1.477       .  S
C554        C555   1.402       .  A
C555        H558   1.084       .  S
C559       C1440   1.481       .  S
C559        C560   1.405       .  A
C559        C564   1.405       .  A
C560        H565   1.084       .  S
C560        C561   1.404       .  A
C561        C820   1.478       .  S
C561        C562   1.397       .  A
C562        H566   1.084       .  S
C562        C563   1.398       .  A
C563       C1769   1.468       .  S
C563        C564   1.402       .  A
C564        H567   1.084       .  S
O568       Mg570   2.145       .  S
O568       Mg576   2.161       .  S
O568        C603   1.238   1_565  S
C569        O582   1.237       .  S
C569        O606   1.271       .  A
C569        H608   1.082       .  S
Mg570       O599   2.149       .  S
Mg570       O614   2.284   1_565  S
Mg570       O610   2.261   1_565  S
Mg570       O581   2.286       .  S
O571       Mg613   2.150       .  S
O571       Mg596   2.132       .  S
O571        C592   1.239       .  S
O572        C603   1.271   1_565  A
O572       Mg596   2.297       .  S
C573        C709   1.494       .  S
C573        O575   1.275       .  A
C573        O587   1.273       .  A
O574        C602   1.270       .  A
O574       Mg576   2.294       .  S
O575       Mg607   2.297       .  S
Mg576       O582   2.137       .  S
Mg576       O590   2.279   1_565  S
Mg576       O578   2.339   1_565  S
C577        C740   1.486       .  S
C577        O615   1.269       .  A
C577        O583   1.275       .  A
O578        C585   1.279       .  A
H579        C592   1.081       .  S
C580        O594   1.237       .  S
C580        O595   1.270       .  A
C580        H605   1.082       .  S
O581        C604   1.270       .  A
O582       Mg596   2.143       .  S
O583       Mg613   2.316       .  S
C584        C669   1.491       .  S
C584        O597   1.273       .  A
C584        O589   1.272       .  A
C585        C829   1.485       .  S
C585        O612   1.271   1_545  A
Mg586       O593   2.113       .  S
Mg586       O594   2.136       .  S
Mg586       O587   2.275       .  S
Mg586       O588   2.300       .  S
Mg586       O615   2.232       .  S
O588        C592   1.272       .  A
O589       Mg596   2.298       .  S
O590        C609   1.275       .  A
O591        C611   1.278       .  A
O591       Mg607   2.316       .  S
O593       Mg607   2.152       .  S
O593        C604   1.238       .  S
O594       Mg613   2.127       .  S
O595       Mg607   2.296       .  S
Mg596       O612   2.244       .  S
O597       Mg613   2.270       .  S
H598        C603   1.081       .  S
O599       Mg607   2.135       .  S
O599        C602   1.236       .  S
H600        C602   1.081       .  S
H601        C604   1.081       .  S
O606       Mg613   2.303       .  S
C609        C689   1.466       .  S
C609        O614   1.273       .  A
O610        C611   1.273   1_545  A
C611       C1200   1.480       .  S
C616        C769   1.480       .  S
C616        C617   1.406       .  A
C616        C621   1.405       .  A
C617        H622   1.084       .  S
C617        C618   1.404       .  A
C618       C2020   1.479       .  S
C618        C619   1.402       .  A
C619        H623   1.084       .  S
C619        C620   1.401       .  A
C620        C720   1.482       .  S
C620        C621   1.402       .  A
C621        H624   1.084       .  S
C625       C1260   1.485       .  S
C625        C626   1.407       .  A
C625        C630   1.407       .  A
C626        H631   1.083       .  S
C626        C627   1.404       .  A
C627        C649   1.482       .  S
C627        C628   1.402       .  A
C628        H632   1.084       .  S
C628        C629   1.402       .  A
C629        C700   1.488       .  S
C629        C630   1.404       .  A
C630        H633   1.083       .  S
C634        C880   1.488       .  S
C634        C635   1.406       .  A
C634        C639   1.409       .  A
C635        H640   1.084       .  S
C635        C636   1.403       .  A
C636        C680   1.480       .  S
C636        C637   1.400       .  A
C637        H641   1.084       .  S
C637        C638   1.402       .  A
C638       C2080   1.479       .  S
C638        C639   1.406       .  A
C639        H642   1.083       .  S
C643        N644   1.359       .  A
C643        N648   1.359       .  A
C643       C1040   1.495       .  S
N644        C645   1.360       .  A
C645        N646   1.359       .  A
C645       C1520   1.482       .  S
N646        C647   1.357       .  A
C647        N648   1.359       .  A
C647        C660   1.497       .  S
C649        C650   1.411       .  A
C649        C654   1.405       .  A
C650        C651   1.403       .  A
C650       Br666   1.918       .  S
C651        H655   1.083       .  S
C651        C652   1.403       .  A
C652        C656   1.476       .  S
C652        C653   1.405       .  A
C653        C654   1.394       .  A
C653       Br665   1.919       .  S
C654        H657   1.084       .  S
C656        C658   1.398       .  A
C656        C662   1.404       .  A
C658        H663   1.084       .  S
C658        C659   1.401       .  A
C659        C660   1.423       .  A
C659       Br667   1.922       .  S
C660        C661   1.412       .  A
C661        H664   1.083       .  S
C661        C662   1.396       .  A
C662       Br668   1.920       .  S
C669        C670   1.420       .  A
C669        C674   1.411       .  A
C670        C671   1.398       .  A
C670       Br686   1.924       .  S
C671        H675   1.084       .  S
C671        C672   1.399       .  A
C672        C676   1.479       .  S
C672        C673   1.405       .  A
C673        C674   1.400       .  A
C673       Br685   1.919       .  S
C674        H677   1.083       .  S
C676        C678   1.403       .  A
C676        C682   1.408       .  A
C678        H683   1.084       .  S
C678        C679   1.399       .  A
C679        C680   1.410       .  A
C679       Br687   1.919       .  S
C680        C681   1.405       .  A
C681        H684   1.084       .  S
C681        C682   1.398       .  A
C682       Br688   1.919       .  S
C689        C690   1.407       .  A
C689        C694   1.401       .  A
C690        C691   1.401       .  A
C690       Br706   1.917       .  S
C691        H695   1.083       .  S
C691        C692   1.403       .  A
C692        C696   1.474       .  S
C692        C693   1.407       .  A
C693        C694   1.396       .  A
C693       Br705   1.919       .  S
C694        H697   1.084       .  S
C696        C698   1.401       .  A
C696        C702   1.403       .  A
C698        H703   1.084       .  S
C698        C699   1.401       .  A
C699        C700   1.416       .  A
C699       Br707   1.921       .  S
C700        C701   1.408       .  A
C701        H704   1.083       .  S
C701        C702   1.395       .  A
C702       Br708   1.919       .  S
C709        C710   1.419       .  A
C709        C714   1.411       .  A
C710        C711   1.405       .  A
C710       Br726   1.920       .  S
C711        H715   1.084       .  S
C711        C712   1.403       .  A
C712        C716   1.481       .  S
C712        C713   1.404       .  A
C713        C714   1.395       .  A
C713       Br725   1.921       .  S
C714        H717   1.083       .  S
C716        C718   1.402       .  A
C716        C722   1.409       .  A
C718        H723   1.084       .  S
C718        C719   1.397       .  A
C719        C720   1.411       .  A
C719       Br727   1.920       .  S
C720        C721   1.405       .  A
C721        H724   1.084       .  S
C721        C722   1.401       .  A
C722       Br728   1.918       .  S
C729        C730   1.411       .  A
C729        C734   1.405       .  A
C730        C731   1.394       .  A
C730       Br746   1.922       .  S
C731        H735   1.084       .  S
C731        C732   1.401       .  A
C732        C736   1.474       .  S
C732        C733   1.407       .  A
C733        C734   1.400       .  A
C733       Br745   1.918       .  S
C734        H737   1.083       .  S
C736        C738   1.401       .  A
C736        C742   1.404       .  A
C738        H743   1.084       .  S
C738        C739   1.401       .  A
C739        C740   1.417       .  A
C739       Br747   1.921       .  S
C740        C741   1.409       .  A
C741        H744   1.083       .  S
C741        C742   1.393       .  A
C742       Br748   1.921       .  S
C749        C750   1.408       .  A
C749        C754   1.403       .  A
C750        C751   1.395       .  A
C750       Br766   1.920       .  S
C751        H755   1.084       .  S
C751        C752   1.403       .  A
C752        C756   1.477       .  S
C752        C753   1.409       .  A
C753        C754   1.398       .  A
C753       Br765   1.920       .  S
C754        H757   1.084       .  S
C756        C758   1.403       .  A
C756        C762   1.408       .  A
C758        H763   1.084       .  S
C758        C759   1.396       .  A
C759        C760   1.409       .  A
C759       Br767   1.921       .  S
C760        C761   1.404       .  A
C761        H764   1.084       .  S
C761        C762   1.397       .  A
C762       Br768   1.919       .  S
C769        C770   1.412       .  A
C769        C774   1.404       .  A
C770        C771   1.399       .  A
C770       Br786   1.919       .  S
C771        H775   1.083       .  S
C771        C772   1.400       .  A
C772        C776   1.473       .  S
C772        C773   1.407       .  A
C773        C774   1.398       .  A
C773       Br785   1.919       .  S
C774        H777   1.084       .  S
C776        C778   1.403       .  A
C776        C782   1.404       .  A
C778        H783   1.083       .  S
C778        C779   1.403       .  A
C779        C780   1.412       .  A
C779       Br787   1.919       .  S
C780        C781   1.405       .  A
C781        H784   1.084       .  S
C781        C782   1.393       .  A
C782       Br788   1.920       .  S
C789        C790   1.416       .  A
C789        C794   1.406       .  A
C790        C791   1.395       .  A
C790       Br806   1.925       .  S
C791        H795   1.084       .  S
C791        C792   1.399       .  A
C792        C796   1.473       .  S
C792        C793   1.406       .  A
C793        C794   1.399       .  A
C793       Br805   1.917       .  S
C794        H797   1.083       .  S
C796        C798   1.402       .  A
C796        C802   1.405       .  A
C798        H803   1.084       .  S
C798        C799   1.398       .  A
C799        C800   1.410       .  A
C799       Br807   1.919       .  S
C800        C801   1.405       .  A
C801        H804   1.084       .  S
C801        C802   1.396       .  A
C802       Br808   1.918       .  S
C809        C810   1.411       .  A
C809        C814   1.403       .  A
C810        C811   1.389       .  A
C810       Br826   1.923       .  S
C811        H815   1.084       .  S
C811        C812   1.397       .  A
C812        C816   1.466       .  S
C812        C813   1.407       .  A
C813        C814   1.401       .  A
C813       Br825   1.916       .  S
C814        H817   1.083       .  S
C816        C818   1.398       .  A
C816        C822   1.406       .  A
C818        H823   1.084       .  S
C818        C819   1.397       .  A
C819        C820   1.414       .  A
C819       Br827   1.918       .  S
C820        C821   1.404       .  A
C821        H824   1.084       .  S
C821        C822   1.394       .  A
C822       Br828   1.920       .  S
C829        C830   1.414       .  A
C829        C834   1.408       .  A
C830        C831   1.403       .  A
C830       Br846   1.919       .  S
C831        H835   1.083       .  S
C831        C832   1.402       .  A
C832        C836   1.478       .  S
C832        C833   1.404       .  A
C833        C834   1.398       .  A
C833       Br845   1.919       .  S
C834        H837   1.083       .  S
C836        C838   1.401       .  A
C836        C842   1.407       .  A
C838        H843   1.084       .  S
C838        C839   1.398       .  A
C839        C840   1.412       .  A
C839       Br847   1.921       .  S
C840        C841   1.406       .  A
C841        H844   1.083       .  S
C841        C842   1.401       .  A
C842       Br848   1.917       .  S
C849        C850   1.414       .  A
C849        C854   1.404       .  A
C850        C851   1.398       .  A
C850       Br866   1.921       .  S
C851        H855   1.084       .  S
C851        C852   1.399       .  A
C852        C856   1.475       .  S
C852        C853   1.407       .  A
C853        C854   1.400       .  A
C853       Br865   1.918       .  S
C854        H857   1.083       .  S
C856        C858   1.402       .  A
C856        C862   1.401       .  A
C858        H863   1.083       .  S
C858        C859   1.405       .  A
C859        C860   1.419       .  A
C859       Br867   1.921       .  S
C860        C861   1.412       .  A
C861        H864   1.083       .  S
C861        C862   1.393       .  A
C862       Br868   1.921       .  S
C869        C870   1.419       .  A
C869        C874   1.408       .  A
C870        C871   1.399       .  A
C870       Br886   1.922       .  S
C871        H875   1.084       .  S
C871        C872   1.399       .  A
C872        C876   1.481       .  S
C872        C873   1.407       .  A
C873        C874   1.404       .  A
C873       Br885   1.917       .  S
C874        H877   1.083       .  S
C876        C878   1.403       .  A
C876        C882   1.407       .  A
C878        H883   1.083       .  S
C878        C879   1.403       .  A
C879        C880   1.413       .  A
C879       Br887   1.919       .  S
C880        C881   1.406       .  A
C881        H884   1.083       .  S
C881        C882   1.399       .  A
C882       Br888   1.919       .  S
C889        C890   1.409       .  A
C889        C894   1.403       .  A
C890        C891   1.395       .  A
C890       Br906   1.920       .  S
C891        H895   1.084       .  S
C891        C892   1.401       .  A
C892        C896   1.475       .  S
C892        C893   1.409       .  A
C893        C894   1.399       .  A
C893       Br905   1.919       .  S
C894        H897   1.083       .  S
C896        C898   1.401       .  A
C896        C902   1.404       .  A
C898        H903   1.084       .  S
C898        C899   1.401       .  A
C899        C900   1.418       .  A
C899       Br907   1.919       .  S
C900        C901   1.410       .  A
C901        H904   1.083       .  S
C901        C902   1.392       .  A
C902       Br908   1.922       .  S
C909        C910   1.407       .  A
C909        C914   1.400       .  A
C910        C911   1.401       .  A
C910       Br926   1.918       .  S
C911        H915   1.083       .  S
C911        C912   1.405       .  A
C912        C916   1.481       .  S
C912        C913   1.410       .  A
C913        C914   1.398       .  A
C913       Br925   1.919       .  S
C914        H917   1.084       .  S
C916        C918   1.398       .  A
C916        C922   1.407       .  A
C918        H923   1.084       .  S
C918        C919   1.395       .  A
C919        C920   1.421       .  A
C919       Br927   1.925       .  S
C920        C921   1.411       .  A
C921        H924   1.083       .  S
C921        C922   1.403       .  A
C922       Br928   1.918       .  S
C929        C930   1.411       .  A
C929        C934   1.404       .  A
C930        C931   1.389       .  A
C930       Br946   1.923   1_556  S
C931        H935   1.084       .  S
C931        C932   1.397       .  A
C932        C936   1.464       .  S
C932        C933   1.405       .  A
C933        C934   1.400       .  A
C933       Br945   1.917       .  S
C934        H937   1.083       .  S
C936        C938   1.399       .  A
C936        C942   1.406       .  A
C938        H943   1.084       .  S
C938        C939   1.396       .  A
C939        C940   1.410       .  A
C939       Br947   1.920       .  S
C940        C941   1.401       .  A
C941        H944   1.084       .  S
C941        C942   1.392       .  A
C942       Br948   1.920       .  S
C949        C950   1.411       .  A
C949        C954   1.403       .  A
C950        C951   1.399       .  A
C950       Br966   1.920       .  S
C951        H955   1.083       .  S
C951        C952   1.401       .  A
C952        C956   1.473       .  S
C952        C953   1.408       .  A
C953        C954   1.397       .  A
C953       Br965   1.920       .  S
C954        H957   1.084       .  S
C956        C958   1.398       .  A
C956        C962   1.409       .  A
C958        H963   1.084       .  S
C958        C959   1.393       .  A
C959        C960   1.409       .  A
C959       Br967   1.920       .  S
C960        C961   1.403       .  A
C961        H964   1.083       .  S
C961        C962   1.403       .  A
C962       Br968   1.917       .  S
C969        C970   1.415       .  A
C969        C974   1.407       .  A
C970        C971   1.403       .  A
C970       Br986   1.921       .  S
C971        H975   1.083       .  S
C971        C972   1.403       .  A
C972        C976   1.474       .  S
C972        C973   1.404       .  A
C973        C974   1.392       .  A
C973       Br985   1.921       .  S
C974        H977   1.084       .  S
C976        C978   1.401       .  A
C976        C982   1.408       .  A
C978        H983   1.083       .  S
C978        C979   1.399       .  A
C979        C980   1.412       .  A
C979       Br987   1.920       .  S
C980        C981   1.402       .  A
C981        H984   1.084       .  S
C981        C982   1.397       .  A
C982       Br988   1.919       .  S
C989        C990   1.412       .  A
C989        C994   1.406       .  A
C990        C991   1.399       .  A
C990      Br1006   1.921       .  S
C991        H995   1.084       .  S
C991        C992   1.402       .  A
C992        C996   1.481       .  S
C992        C993   1.407       .  A
C993        C994   1.402       .  A
C993      Br1005   1.917       .  S
C994        H997   1.083       .  S
C996        C998   1.404       .  A
C996       C1002   1.406       .  A
C998       H1003   1.083       .  S
C998        C999   1.404       .  A
C999       C1000   1.413       .  A
C999      Br1007   1.919       .  S
C1000      C1001   1.406       .  A
C1001      H1004   1.084       .  S
C1001      C1002   1.396       .  A
C1002     Br1008   1.920       .  S
C1009      C1010   1.416       .  A
C1009      C1014   1.409   1_556  A
C1010      C1011   1.402       .  A
C1010     Br1026   1.918       .  S
C1011      H1015   1.084       .  S
C1011      C1012   1.401   1_556  A
C1012      C1016   1.479       .  S
C1012      C1013   1.405       .  A
C1013      C1014   1.397       .  A
C1013     Br1025   1.920       .  S
C1014      H1017   1.083       .  S
C1016      C1018   1.403       .  A
C1016      C1022   1.408       .  A
C1018      H1023   1.084       .  S
C1018      C1019   1.398       .  A
C1019      C1020   1.408       .  A
C1019     Br1027   1.919       .  S
C1020      C1021   1.404       .  A
C1021      H1024   1.083       .  S
C1021      C1022   1.401       .  A
C1022     Br1028   1.918       .  S
C1029      C1030   1.411       .  A
C1029      C1034   1.404       .  A
C1030      C1031   1.398       .  A
C1030     Br1046   1.920       .  S
C1031      H1035   1.083       .  S
C1031      C1032   1.400       .  A
C1032      C1036   1.477       .  S
C1032      C1033   1.408       .  A
C1033      C1034   1.401       .  A
C1033     Br1045   1.918       .  S
C1034      H1037   1.083       .  S
C1036      C1038   1.400       .  A
C1036      C1042   1.402       .  A
C1038      H1043   1.084       .  S
C1038      C1039   1.401       .  A
C1039      C1040   1.420       .  A
C1039     Br1047   1.922       .  S
C1040      C1041   1.412       .  A
C1041      H1044   1.083       .  S
C1041      C1042   1.398       .  A
C1042     Br1048   1.918       .  S
C1049      C1050   1.412       .  A
C1049      C1054   1.403       .  A
C1050      C1051   1.400       .  A
C1050     Br1066   1.919       .  S
C1051      H1055   1.083       .  S
C1051      C1052   1.401       .  A
C1052      C1056   1.479       .  S
C1052      C1053   1.409       .  A
C1053      C1054   1.401       .  A
C1053     Br1065   1.919       .  S
C1054      H1057   1.083       .  S
C1056      C1058   1.404       .  A
C1056      C1062   1.405       .  A
C1058      H1063   1.083       .  S
C1058      C1059   1.406       .  A
C1059      C1060   1.413       .  A
C1059     Br1067   1.918       .  S
C1060      C1061   1.406       .  A
C1061      H1064   1.084       .  S
C1061      C1062   1.394       .  A
C1062     Br1068   1.920       .  S
C1069      C1070   1.406       .  A
C1069      C1074   1.403       .  A
C1070      C1071   1.397       .  A
C1070     Br1086   1.919       .  S
C1071      H1075   1.083       .  S
C1071      C1072   1.405       .  A
C1072      C1076   1.488       .  S
C1072      C1073   1.412       .  A
C1073      C1074   1.403       .  A
C1073     Br1085   1.919       .  S
C1074      H1077   1.083       .  S
C1076      C1078   1.405       .  A
C1076      C1082   1.410       .  A
C1078      H1083   1.083       .  S
C1078      C1079   1.403       .  A
C1079      C1080   1.413       .  A
C1079     Br1087   1.920       .  S
C1080      C1081   1.404       .  A
C1081      H1084   1.084       .  S
C1081      C1082   1.399       .  A
C1082     Br1088   1.920       .  S
C1089      C1090   1.421       .  A
C1089      C1094   1.411       .  A
C1090      C1091   1.393       .  A
C1090     Br1106   1.925       .  S
C1091      H1095   1.084       .  S
C1091      C1092   1.397       .  A
C1092      C1096   1.475       .  S
C1092      C1093   1.405       .  A
C1093      C1094   1.401       .  A
C1093     Br1105   1.918       .  S
C1094      H1097   1.083       .  S
C1096      C1098   1.403       .  A
C1096      C1102   1.406       .  A
C1098      H1103   1.083       .  S
C1098      C1099   1.400       .  A
C1099      C1100   1.411       .  A
C1099     Br1107   1.919       .  S
C1100      C1101   1.404       .  A
C1101      H1104   1.084       .  S
C1101      C1102   1.395       .  A
C1102     Br1108   1.920       .  S
C1109      C1110   1.413       .  A
C1109      C1114   1.405       .  A
C1110      C1111   1.401       .  A
C1110     Br1126   1.920       .  S
C1111      H1115   1.083   1_554  S
C1111      C1112   1.402       .  A
C1112      C1116   1.482       .  S
C1112      C1113   1.410       .  A
C1113      C1114   1.400       .  A
C1113     Br1125   1.920       .  S
C1114      H1117   1.083       .  S
C1116      C1118   1.405   1_554  A
C1116      C1122   1.408       .  A
C1118      H1123   1.083       .  S
C1118      C1119   1.403       .  A
C1119      C1120   1.411       .  A
C1119     Br1127   1.919       .  S
C1120      C1121   1.405   1_556  A
C1121      H1124   1.084       .  S
C1121      C1122   1.397       .  A
C1122     Br1128   1.920       .  S
C1129      C1130   1.414       .  A
C1129      C1134   1.407       .  A
C1130      C1131   1.394       .  A
C1130     Br1146   1.923       .  S
C1131      H1135   1.084       .  S
C1131      C1132   1.400       .  A
C1132      C1136   1.474       .  S
C1132      C1133   1.406       .  A
C1133      C1134   1.398       .  A
C1133     Br1145   1.919       .  S
C1134      H1137   1.083       .  S
C1136      C1138   1.403       .  A
C1136      C1142   1.405       .  A
C1138      H1143   1.084       .  S
C1138      C1139   1.399       .  A
C1139      C1140   1.412       .  A
C1139     Br1147   1.919       .  S
C1140      C1141   1.407       .  A
C1141      H1144   1.083       .  S
C1141      C1142   1.394       .  A
C1142     Br1148   1.920       .  S
C1149      C1150   1.417       .  A
C1149      C1154   1.407       .  A
C1150      C1151   1.395       .  A
C1150     Br1166   1.923       .  S
C1151      H1155   1.084       .  S
C1151      C1152   1.399       .  A
C1152      C1156   1.478       .  S
C1152      C1153   1.408       .  A
C1153      C1154   1.400       .  A
C1153     Br1165   1.919       .  S
C1154      H1157   1.083       .  S
C1156      C1158   1.403       .  A
C1156      C1162   1.410       .  A
C1158      H1163   1.083       .  S
C1158      C1159   1.399       .  A
C1159      C1160   1.408       .  A
C1159     Br1167   1.919       .  S
C1160      C1161   1.401       .  A
C1161      H1164   1.084       .  S
C1161      C1162   1.396       .  A
C1162     Br1168   1.921       .  S
C1169      C1170   1.418       .  A
C1169      C1174   1.412       .  A
C1170      C1171   1.405       .  A
C1170     Br1186   1.920       .  S
C1171      H1175   1.083       .  S
C1171      C1172   1.402       .  A
C1172      C1176   1.476       .  S
C1172      C1173   1.401       .  A
C1173      C1174   1.394       .  A
C1173     Br1185   1.920       .  S
C1174      H1177   1.083       .  S
C1176      C1178   1.401       .  A
C1176      C1182   1.407       .  A
C1178      H1183   1.083       .  S
C1178      C1179   1.400       .  A
C1179      C1180   1.413       .  A
C1179     Br1187   1.920       .  S
C1180      C1181   1.405       .  A
C1181      H1184   1.084       .  S
C1181      C1182   1.398       .  A
C1182     Br1188   1.918       .  S
C1189      C1190   1.412       .  A
C1189      C1194   1.405       .  A
C1190      C1191   1.403       .  A
C1190     Br1206   1.919       .  S
C1191      H1195   1.083       .  S
C1191      C1192   1.403       .  A
C1192      C1196   1.475       .  S
C1192      C1193   1.405       .  A
C1193      C1194   1.394       .  A
C1193     Br1205   1.920       .  S
C1194      H1197   1.084       .  S
C1196      C1198   1.399       .  A
C1196      C1202   1.406   1_545  A
C1198      H1203   1.084       .  S
C1198      C1199   1.398       .  A
C1199      C1200   1.414   1_545  A
C1199     Br1207   1.921       .  S
C1200      C1201   1.406       .  A
C1201      H1204   1.083       .  S
C1201      C1202   1.400       .  A
C1202     Br1208   1.918       .  S
C1209      C1210   1.409       .  A
C1209      C1214   1.403       .  A
C1210      C1211   1.398       .  A
C1210     Br1226   1.919       .  S
C1211      H1215   1.084       .  S
C1211      C1212   1.403       .  A
C1212      C1216   1.477       .  S
C1212      C1213   1.408       .  A
C1213      C1214   1.399       .  A
C1213     Br1225   1.918       .  S
C1214      H1217   1.084       .  S
C1216      C1218   1.404       .  A
C1216      C1222   1.404       .  A
C1218      H1223   1.083       .  S
C1218      C1219   1.406       .  A
C1219      C1220   1.418       .  A
C1219     Br1227   1.921       .  S
C1220      C1221   1.407       .  A
C1221      H1224   1.083       .  S
C1221      C1222   1.390       .  A
C1222     Br1228   1.922       .  S
C1229      C1230   1.411       .  A
C1229      C1234   1.404       .  A
C1230      C1231   1.394       .  A
C1230     Br1246   1.922       .  S
C1231      H1235   1.084       .  S
C1231      C1232   1.400       .  A
C1232      C1236   1.470       .  S
C1232      C1233   1.407       .  A
C1233      C1234   1.398       .  A
C1233     Br1245   1.918       .  S
C1234      H1237   1.084       .  S
C1236      C1238   1.401       .  A
C1236      C1242   1.405       .  A
C1238      H1243   1.084       .  S
C1238      C1239   1.394       .  A
C1239      C1240   1.411       .  A
C1239     Br1247   1.921       .  S
C1240      C1241   1.407       .  A
C1241      H1244   1.083       .  S
C1241      C1242   1.398       .  A
C1242     Br1248   1.918       .  S
C1249      C1250   1.413   1_565  A
C1249      C1254   1.405       .  A
C1250      C1251   1.395       .  A
C1250     Br1266   1.923       .  S
C1251      H1255   1.084       .  S
C1251      C1252   1.400       .  A
C1252      C1256   1.479       .  S
C1252      C1253   1.410   1_545  A
C1253      C1254   1.403       .  A
C1253     Br1265   1.918       .  S
C1254      H1257   1.083       .  S
C1256      C1258   1.403       .  A
C1256      C1262   1.408       .  A
C1258      H1263   1.083       .  S
C1258      C1259   1.402       .  A
C1259      C1260   1.414       .  A
C1259     Br1267   1.919       .  S
C1260      C1261   1.405       .  A
C1261      H1264   1.084       .  S
C1261      C1262   1.396       .  A
C1262     Br1268   1.921       .  S
C1269      C1270   1.410       .  A
C1269      C1274   1.406       .  A
C1270      C1271   1.399       .  A
C1270     Br1286   1.920       .  S
C1271      H1275   1.084       .  S
C1271      C1272   1.404       .  A
C1272      C1276   1.477       .  S
C1272      C1273   1.407       .  A
C1273      C1274   1.396       .  A
C1273     Br1285   1.920       .  S
C1274      H1277   1.084       .  S
C1276      C1278   1.401       .  A
C1276      C1282   1.409       .  A
C1278      H1283   1.083       .  S
C1278      C1279   1.400       .  A
C1279      C1280   1.413       .  A
C1279     Br1287   1.921       .  S
C1280      C1281   1.403       .  A
C1281      H1284   1.083       .  S
C1281      C1282   1.396       .  A
C1282     Br1288   1.920       .  S
C1289      C1290   1.415       .  A
C1289      C1294   1.406       .  A
C1290      C1291   1.402       .  A
C1290     Br1306   1.920       .  S
C1291      H1295   1.083       .  S
C1291      C1292   1.401       .  A
C1292      C1296   1.481       .  S
C1292      C1293   1.407       .  A
C1293      C1294   1.401       .  A
C1293     Br1305   1.918       .  S
C1294      H1297   1.083       .  S
C1296      C1298   1.404       .  A
C1296      C1302   1.406       .  A
C1298      H1303   1.083       .  S
C1298      C1299   1.406       .  A
C1299      C1300   1.414       .  A
C1299     Br1307   1.918       .  S
C1300      C1301   1.407       .  A
C1301      H1304   1.084       .  S
C1301      C1302   1.396       .  A
C1302     Br1308   1.920       .  S
C1309      C1310   1.413       .  A
C1309      C1314   1.404       .  A
C1310      C1311   1.399       .  A
C1310     Br1326   1.921       .  S
C1311      H1315   1.084   1_455  S
C1311      C1312   1.402       .  A
C1312      C1316   1.481       .  S
C1312      C1313   1.410       .  A
C1313      C1314   1.399       .  A
C1313     Br1325   1.919       .  S
C1314      H1317   1.083       .  S
C1316      C1318   1.402   1_455  A
C1316      C1322   1.407       .  A
C1318      H1323   1.084       .  S
C1318      C1319   1.403       .  A
C1319      C1320   1.417       .  A
C1319     Br1327   1.920       .  S
C1320      C1321   1.408   1_655  A
C1321      H1324   1.083       .  S
C1321      C1322   1.397       .  A
C1322     Br1328   1.921       .  S
C1329      C1330   1.415       .  A
C1329      C1334   1.407       .  A
C1330      C1331   1.404       .  A
C1330     Br1346   1.919       .  S
C1331      H1335   1.083       .  S
C1331      C1332   1.402       .  A
C1332      C1336   1.476       .  S
C1332      C1333   1.404       .  A
C1333      C1334   1.395       .  A
C1333     Br1345   1.920       .  S
C1334      H1337   1.084       .  S
C1336      C1338   1.401       .  A
C1336      C1342   1.407       .  A
C1338      H1343   1.083       .  S
C1338      C1339   1.400       .  A
C1339      C1340   1.413       .  A
C1339     Br1347   1.920       .  S
C1340      C1341   1.404       .  A
C1341      H1344   1.083       .  S
C1341      C1342   1.399       .  A
C1342     Br1348   1.918       .  S
C1349      C1350   1.412       .  A
C1349      C1354   1.405       .  A
C1350      C1351   1.396       .  A
C1350     Br1366   1.922   1_455  S
C1351      H1355   1.084       .  S
C1351      C1352   1.400       .  A
C1352      C1356   1.480       .  S
C1352      C1353   1.410       .  A
C1353      C1354   1.404       .  A
C1353     Br1365   1.918       .  S
C1354      H1357   1.083       .  S
C1356      C1358   1.403       .  A
C1356      C1362   1.406       .  A
C1358      H1363   1.084       .  S
C1358      C1359   1.400       .  A
C1359      C1360   1.411       .  A
C1359     Br1367   1.920       .  S
C1360      C1361   1.407       .  A
C1361      H1364   1.083       .  S
C1361      C1362   1.399       .  A
C1362     Br1368   1.918       .  S
C1369      C1370   1.406       .  A
C1369      C1374   1.403       .  A
C1370      C1371   1.396       .  A
C1370     Br1386   1.919       .  S
C1371      H1375   1.084       .  S
C1371      C1372   1.402       .  A
C1372      C1376   1.479       .  S
C1372      C1373   1.410       .  A
C1373      C1374   1.401       .  A
C1373     Br1385   1.919       .  S
C1374      H1377   1.083       .  S
C1376      C1378   1.401       .  A
C1376      C1382   1.411       .  A
C1378      H1383   1.084       .  S
C1378      C1379   1.396       .  A
C1379      C1380   1.413       .  A
C1379     Br1387   1.922       .  S
C1380      C1381   1.404       .  A
C1381      H1384   1.083       .  S
C1381      C1382   1.400       .  A
C1382     Br1388   1.919       .  S
C1389      C1390   1.415       .  A
C1389      C1394   1.407   1_655  A
C1390      C1391   1.404       .  A
C1390     Br1406   1.918       .  S
C1391      H1395   1.083       .  S
C1391      C1392   1.404   1_655  A
C1392      C1396   1.483       .  S
C1392      C1393   1.407       .  A
C1393      C1394   1.398       .  A
C1393     Br1405   1.920       .  S
C1394      H1397   1.083       .  S
C1396      C1398   1.403       .  A
C1396      C1402   1.409       .  A
C1398      H1403   1.084       .  S
C1398      C1399   1.398       .  A
C1399      C1400   1.411       .  A
C1399     Br1407   1.921       .  S
C1400      C1401   1.404       .  A
C1401      H1404   1.083       .  S
C1401      C1402   1.402       .  A
C1402     Br1408   1.918       .  S
C1409      C1410   1.419       .  A
C1409      C1414   1.411       .  A
C1410      C1411   1.401       .  A
C1410     Br1426   1.921       .  S
C1411      H1415   1.084       .  S
C1411      C1412   1.401       .  A
C1412      C1416   1.472       .  S
C1412      C1413   1.402       .  A
C1413      C1414   1.392       .  A
C1413     Br1425   1.921       .  S
C1414      H1417   1.083       .  S
C1416      C1418   1.402       .  A
C1416      C1422   1.408       .  A
C1418      H1423   1.084       .  S
C1418      C1419   1.396       .  A
C1419      C1420   1.408       .  A
C1419     Br1427   1.920       .  S
C1420      C1421   1.402       .  A
C1421      H1424   1.084       .  S
C1421      C1422   1.397       .  A
C1422     Br1428   1.919   1_455  S
C1429      C1430   1.418       .  A
C1429      C1434   1.410       .  A
C1430      C1431   1.403       .  A
C1430     Br1446   1.921       .  S
C1431      H1435   1.084       .  S
C1431      C1432   1.402       .  A
C1432      C1436   1.478       .  S
C1432      C1433   1.404       .  A
C1433      C1434   1.396       .  A
C1433     Br1445   1.920       .  S
C1434      H1437   1.083       .  S
C1436      C1438   1.402       .  A
C1436      C1442   1.407       .  A
C1438      H1443   1.084       .  S
C1438      C1439   1.398       .  A
C1439      C1440   1.412       .  A
C1439     Br1447   1.921       .  S
C1440      C1441   1.405       .  A
C1441      H1444   1.083       .  S
C1441      C1442   1.401       .  A
C1442     Br1448   1.917       .  S
C1449      C1450   1.418       .  A
C1449      C1454   1.412       .  A
C1450      C1451   1.403       .  A
C1450     Br1466   1.918       .  S
C1451      H1455   1.084       .  S
C1451      C1452   1.402       .  A
C1452      C1456   1.476       .  S
C1452      C1453   1.402       .  A
C1453      C1454   1.394       .  A
C1453     Br1465   1.920       .  S
C1454      H1457   1.083       .  S
C1456      C1458   1.403       .  A
C1456      C1462   1.407       .  A
C1458      H1463   1.083       .  S
C1458      C1459   1.400       .  A
C1459      C1460   1.410       .  A
C1459     Br1467   1.919       .  S
C1460      C1461   1.402       .  A
C1461      H1464   1.084       .  S
C1461      C1462   1.397       .  A
C1462     Br1468   1.918       .  S
C1469      C1470   1.410       .  A
C1469      C1474   1.403       .  A
C1470      C1471   1.395       .  A
C1470     Br1486   1.921       .  S
C1471      H1475   1.084       .  S
C1471      C1472   1.402       .  A
C1472      C1476   1.474       .  S
C1472      C1473   1.407       .  A
C1473      C1474   1.399       .  A
C1473     Br1485   1.918       .  S
C1474      H1477   1.083       .  S
C1476      C1478   1.402       .  A
C1476      C1482   1.403       .  A
C1478      H1483   1.084       .  S
C1478      C1479   1.403       .  A
C1479      C1480   1.418       .  A
C1479     Br1487   1.921   1_565  S
C1480      C1481   1.410       .  A
C1481      H1484   1.083       .  S
C1481      C1482   1.391       .  A
C1482     Br1488   1.921       .  S
C1489      C1490   1.415       .  A
C1489      C1494   1.406       .  A
C1490      C1491   1.401       .  A
C1490     Br1506   1.921       .  S
C1491      H1495   1.084       .  S
C1491      C1492   1.401       .  A
C1492      C1496   1.480       .  S
C1492      C1493   1.408       .  A
C1493      C1494   1.400       .  A
C1493     Br1505   1.918       .  S
C1494      H1497   1.083       .  S
C1496      C1498   1.401       .  A
C1496      C1502   1.406       .  A
C1498      H1503   1.083       .  S
C1498      C1499   1.405       .  A
C1499      C1500   1.420       .  A
C1499     Br1507   1.921       .  S
C1500      C1501   1.408       .  A
C1501      H1504   1.083       .  S
C1501      C1502   1.396       .  A
C1502     Br1508   1.920       .  S
C1509      C1510   1.410       .  A
C1509      C1514   1.402       .  A
C1510      C1511   1.400       .  A
C1510     Br1526   1.919       .  S
C1511      H1515   1.083       .  S
C1511      C1512   1.403       .  A
C1512      C1516   1.482       .  S
C1512      C1513   1.410       .  A
C1513      C1514   1.401       .  A
C1513     Br1525   1.919       .  S
C1514      H1517   1.083       .  S
C1516      C1518   1.404       .  A
C1516      C1522   1.408       .  A
C1518      H1523   1.083       .  S
C1518      C1519   1.403       .  A
C1519      C1520   1.413       .  A
C1519     Br1527   1.919       .  S
C1520      C1521   1.405       .  A
C1521      H1524   1.083       .  S
C1521      C1522   1.397       .  A
C1522     Br1528   1.920       .  S
C1529      C1530   1.408       .  A
C1529      C1534   1.405       .  A
C1530      C1531   1.399       .  A
C1530     Br1546   1.920       .  S
C1531      H1535   1.084       .  S
C1531      C1532   1.404       .  A
C1532      C1536   1.488       .  S
C1532      C1533   1.412       .  A
C1533      C1534   1.406       .  A
C1533     Br1545   1.918       .  S
C1534      H1537   1.083       .  S
C1536      C1538   1.401       .  A
C1536      C1542   1.411       .  A
C1538      H1543   1.084       .  S
C1538      C1539   1.399       .  A
C1539      C1540   1.417       .  A
C1539     Br1547   1.923   1_455  S
C1540      C1541   1.407       .  A
C1541      H1544   1.083       .  S
C1541      C1542   1.407       .  A
C1542     Br1548   1.918       .  S
C1549      C1550   1.417       .  A
C1549      C1554   1.410       .  A
C1550      C1551   1.404       .  A
C1550     Br1566   1.920   1_565  S
C1551      H1555   1.083       .  S
C1551      C1552   1.403       .  A
C1552      C1556   1.480       .  S
C1552      C1553   1.404       .  A
C1553      C1554   1.396       .  A
C1553     Br1565   1.920       .  S
C1554      H1557   1.083       .  S
C1556      C1558   1.402       .  A
C1556      C1562   1.406       .  A
C1558      H1563   1.084       .  S
C1558      C1559   1.399       .  A
C1559      C1560   1.413       .  A
C1559     Br1567   1.921       .  S
C1560      C1561   1.407       .  A
C1561      H1564   1.083       .  S
C1561      C1562   1.402       .  A
C1562     Br1568   1.917       .  S
C1569      C1570   1.422       .  A
C1569      C1574   1.409       .  A
C1570      C1571   1.397       .  A
C1570     Br1586   1.925       .  S
C1571      H1575   1.084       .  S
C1571      C1572   1.399       .  A
C1572      C1576   1.480       .  S
C1572      C1573   1.407       .  A
C1573      C1574   1.401       .  A
C1573     Br1585   1.918       .  S
C1574      H1577   1.083       .  S
C1576      C1578   1.403       .  A
C1576      C1582   1.409       .  A
C1578      H1583   1.084       .  S
C1578      C1579   1.398       .  A
C1579      C1580   1.411       .  A
C1579     Br1587   1.920       .  S
C1580      C1581   1.404       .  A
C1581      H1584   1.084       .  S
C1581      C1582   1.399       .  A
C1582     Br1588   1.919       .  S
C1589      C1590   1.411       .  A
C1589      C1594   1.408       .  A
C1590      C1591   1.403       .  A
C1590     Br1606   1.917   1_556  S
C1591      H1595   1.083       .  S
C1591      C1592   1.403       .  A
C1592      C1596   1.472       .  S
C1592      C1593   1.403       .  A
C1593      C1594   1.393       .  A
C1593     Br1605   1.921       .  S
C1594      H1597   1.084       .  S
C1596      C1598   1.400       .  A
C1596      C1602   1.406       .  A
C1598      H1603   1.084       .  S
C1598      C1599   1.394       .  A
C1599      C1600   1.411       .  A
C1599     Br1607   1.921       .  S
C1600      C1601   1.405       .  A
C1601      H1604   1.083       .  S
C1601      C1602   1.400       .  A
C1602     Br1608   1.917       .  S
C1609      C1610   1.409       .  A
C1609      C1614   1.404       .  A
C1610      C1611   1.402       .  A
C1610     Br1626   1.918       .  S
C1611      H1615   1.083       .  S
C1611      C1612   1.406       .  A
C1612      C1616   1.487       .  S
C1612      C1613   1.411       .  A
C1613      C1614   1.400       .  A
C1613     Br1625   1.919       .  S
C1614      H1617   1.084       .  S
C1616      C1618   1.401       .  A
C1616      C1622   1.408       .  A
C1618      H1623   1.084       .  S
C1618      C1619   1.400       .  A
C1619      C1620   1.421       .  A
C1619     Br1627   1.924       .  S
C1620      C1621   1.410       .  A
C1621      H1624   1.083       .  S
C1621      C1622   1.402       .  A
C1622     Br1628   1.919       .  S
C1629      C1630   1.414       .  A
C1629      C1634   1.405       .  A
C1630      C1631   1.395       .  A
C1630     Br1646   1.922       .  S
C1631      H1635   1.084       .  S
C1631      C1632   1.398       .  A
C1632      C1636   1.475       .  S
C1632      C1633   1.407       .  A
C1633      C1634   1.403       .  A
C1633     Br1645   1.917   1_655  S
C1634      H1637   1.083   1_655  S
C1636      C1638   1.402       .  A
C1636      C1642   1.408       .  A
C1638      H1643   1.083       .  S
C1638      C1639   1.401       .  A
C1639      C1640   1.410       .  A
C1639     Br1647   1.918       .  S
C1640      C1641   1.403       .  A
C1641      H1644   1.084       .  S
C1641      C1642   1.398       .  A
C1642     Br1648   1.920       .  S
C1649      C1650   1.411       .  A
C1649      C1654   1.404       .  A
C1650      C1651   1.403       .  A
C1650     Br1666   1.919       .  S
C1651      H1655   1.083       .  S
C1651      C1652   1.404       .  A
C1652      C1656   1.482       .  S
C1652      C1653   1.407       .  A
C1653      C1654   1.399       .  A
C1653     Br1665   1.917       .  S
C1654      H1657   1.084       .  S
C1656      C1658   1.403       .  A
C1656      C1662   1.403       .  A
C1658      H1663   1.083       .  S
C1658      C1659   1.406       .  A
C1659      C1660   1.419       .  A
C1659     Br1667   1.919       .  S
C1660      C1661   1.413       .  A
C1661      H1664   1.083       .  S
C1661      C1662   1.398       .  A
C1662     Br1668   1.920       .  S
C1669      C1670   1.416       .  A
C1669      C1674   1.408       .  A
C1670      C1671   1.399       .  A
C1670     Br1686   1.922       .  S
C1671      H1675   1.084       .  S
C1671      C1672   1.402       .  A
C1672      C1676   1.477       .  S
C1672      C1673   1.404       .  A
C1673      C1674   1.396       .  A
C1673     Br1685   1.919       .  S
C1674      H1677   1.080       .  S
C1676      C1678   1.402       .  A
C1676      C1682   1.408       .  A
C1678      H1683   1.084       .  S
C1678      C1679   1.396       .  A
C1679      C1680   1.412       .  A
C1679     Br1687   1.921       .  S
C1680      C1681   1.404       .  A
C1681      H1684   1.084       .  S
C1681      C1682   1.399       .  A
C1682     Br1688   1.918       .  S
C1689      C1690   1.413       .  A
C1689      C1694   1.406       .  A
C1690      C1691   1.400       .  A
C1690     Br1706   1.920       .  S
C1691      H1695   1.083       .  S
C1691      C1692   1.404       .  A
C1692      C1696   1.486       .  S
C1692      C1693   1.410       .  A
C1693      C1694   1.398       .  A
C1693     Br1705   1.920       .  S
C1694      H1697   1.083       .  S
C1696      C1698   1.404       .  A
C1696      C1702   1.412       .  A
C1698      H1703   1.083       .  S
C1698      C1699   1.397       .  A
C1699      C1700   1.410       .  A
C1699     Br1707   1.920       .  S
C1700      C1701   1.403       .  A
C1701      H1704   1.083       .  S
C1701      C1702   1.401       .  A
C1702     Br1708   1.920       .  S
C1709      C1710   1.416       .  A
C1709      C1714   1.408       .  A
C1710      C1711   1.395       .  A
C1710     Br1726   1.919       .  S
C1711      H1715   1.084       .  S
C1711      C1712   1.398       .  A
C1712      C1716   1.471       .  S
C1712      C1713   1.404       .  A
C1713      C1714   1.400       .  A
C1713     Br1725   1.917       .  S
C1714      H1717   1.082       .  S
C1716      C1718   1.401       .  A
C1716      C1722   1.407       .  A
C1718      H1723   1.083       .  S
C1718      C1719   1.397       .  A
C1719      C1720   1.407       .  A
C1719     Br1727   1.918       .  S
C1720      C1721   1.402       .  A
C1721      H1724   1.084       .  S
C1721      C1722   1.398       .  A
C1722     Br1728   1.918       .  S
C1729      C1730   1.415       .  A
C1729      C1734   1.406       .  A
C1730      C1731   1.399       .  A
C1730     Br1746   1.920       .  S
C1731      H1735   1.084       .  S
C1731      C1732   1.399       .  A
C1732      C1736   1.472       .  S
C1732      C1733   1.405       .  A
C1733      C1734   1.397       .  A
C1733     Br1745   1.919       .  S
C1734      H1737   1.083       .  S
C1736      C1738   1.402       .  A
C1736      C1742   1.407       .  A
C1738      H1743   1.083       .  S
C1738      C1739   1.399       .  A
C1739      C1740   1.408       .  A
C1739     Br1747   1.918       .  S
C1740      C1741   1.402       .  A
C1741      H1744   1.084       .  S
C1741      C1742   1.397       .  A
C1742     Br1748   1.919       .  S
C1749      C1750   1.415       .  A
C1749      C1754   1.405       .  A
C1750      C1751   1.395       .  A
C1750     Br1766   1.923       .  S
C1751      H1755   1.084       .  S
C1751      C1752   1.401       .  A
C1752      C1756   1.472       .  S
C1752      C1753   1.405       .  A
C1753      C1754   1.397       .  A
C1753     Br1765   1.919       .  S
C1754      H1757   1.083       .  S
C1756      C1758   1.403       .  A
C1756      C1762   1.407       .  A
C1758      H1763   1.084       .  S
C1758      C1759   1.397       .  A
C1759      C1760   1.408       .  A
C1759     Br1767   1.919       .  S
C1760      C1761   1.403       .  A
C1761      H1764   1.084       .  S
C1761      C1762   1.394       .  A
C1762     Br1768   1.920       .  S
C1769      C1770   1.408       .  A
C1769      C1774   1.402       .  A
C1770      C1771   1.395       .  A
C1770     Br1786   1.918       .  S
C1771      H1775   1.084       .  S
C1771      C1772   1.400       .  A
C1772      C1776   1.468       .  S
C1772      C1773   1.406       .  A
C1773      C1774   1.397       .  A
C1773     Br1785   1.918       .  S
C1774      H1777   1.084       .  S
C1776      C1778   1.398       .  A
C1776      C1782   1.401       .  A
C1778      H1783   1.084       .  S
C1778      C1779   1.397       .  A
C1779      C1780   1.418       .  A
C1779     Br1787   1.922       .  S
C1780      C1781   1.410       .  A
C1781      H1784   1.083       .  S
C1781      C1782   1.395       .  A
C1782     Br1788   1.918       .  S
C1789      C1790   1.409       .  A
C1789      C1794   1.401       .  A
C1790      C1791   1.399       .  A
C1790     Br1806   1.919       .  S
C1791      H1795   1.083       .  S
C1791      C1792   1.401       .  A
C1792      C1796   1.473       .  S
C1792      C1793   1.408       .  A
C1793      C1794   1.397       .  A
C1793     Br1805   1.918       .  S
C1794      H1797   1.084       .  S
C1796      C1798   1.399       .  A
C1796      C1802   1.406       .  A
C1798      H1803   1.084       .  S
C1798      C1799   1.400       .  A
C1799      C1800   1.415       .  A
C1799     Br1807   1.921       .  S
C1800      C1801   1.405       .  A
C1801      H1804   1.083       .  S
C1801      C1802   1.396       .  A
C1802     Br1808   1.919       .  S
C1809      C1810   1.409       .  A
C1809      C1814   1.403       .  A
C1810      C1811   1.402       .  A
C1810     Br1826   1.918       .  S
C1811      H1815   1.083       .  S
C1811      C1812   1.403       .  A
C1812      C1816   1.479       .  S
C1812      C1813   1.408       .  A
C1813      C1814   1.398       .  A
C1813     Br1825   1.919       .  S
C1814      H1817   1.084       .  S
C1816      C1818   1.402       .  A
C1816      C1822   1.406       .  A
C1818      H1823   1.083       .  S
C1818      C1819   1.403       .  A
C1819      C1820   1.415       .  A
C1819     Br1827   1.921       .  S
C1820      C1821   1.406       .  A
C1821      H1824   1.083       .  S
C1821      C1822   1.396       .  A
C1822     Br1828   1.920       .  S
C1829      C1830   1.420       .  A
C1829      C1834   1.408       .  A
C1830      C1831   1.401       .  A
C1830     Br1846   1.922       .  S
C1831      H1835   1.084       .  S
C1831      C1832   1.399       .  A
C1832      C1836   1.475       .  S
C1832      C1833   1.405       .  A
C1833      C1834   1.396       .  A
C1833     Br1845   1.920       .  S
C1834      H1837   1.083       .  S
C1836      C1838   1.403       .  A
C1836      C1842   1.407       .  A
C1838      H1843   1.083       .  S
C1838      C1839   1.399       .  A
C1839      C1840   1.408       .  A
C1839     Br1847   1.918       .  S
C1840      C1841   1.403       .  A
C1841      H1844   1.084       .  S
C1841      C1842   1.397       .  A
C1842     Br1848   1.918       .  S
C1849      C1850   1.408       .  A
C1849      C1854   1.402       .  A
C1850      C1851   1.399       .  A
C1850     Br1866   1.919       .  S
C1851      H1855   1.083       .  S
C1851      C1852   1.403       .  A
C1852      C1856   1.478       .  S
C1852      C1853   1.409       .  A
C1853      C1854   1.398       .  A
C1853     Br1865   1.919       .  S
C1854      H1857   1.084       .  S
C1856      C1858   1.401       .  A
C1856      C1862   1.407       .  A
C1858      H1863   1.084       .  S
C1858      C1859   1.402       .  A
C1859      C1860   1.417       .  A
C1859     Br1867   1.921       .  S
C1860      C1861   1.407       .  A
C1861      H1864   1.083       .  S
C1861      C1862   1.395       .  A
C1862     Br1868   1.921       .  S
C1869      C1870   1.413       .  A
C1869      C1874   1.407       .  A
C1870      C1871   1.397       .  A
C1870     Br1886   1.922       .  S
C1871      H1875   1.084       .  S
C1871      C1872   1.402       .  A
C1872      C1876   1.480       .  S
C1872      C1873   1.407       .  A
C1873      C1874   1.402       .  A
C1873     Br1885   1.918       .  S
C1874      H1877   1.083       .  S
C1876      C1878   1.406       .  A
C1876      C1882   1.409       .  A
C1878      H1883   1.083       .  S
C1878      C1879   1.404       .  A
C1879      C1880   1.409       .  A
C1879     Br1887   1.917       .  S
C1880      C1881   1.401       .  A
C1881      H1884   1.084       .  S
C1881      C1882   1.394       .  A
C1882     Br1888   1.920       .  S
C1889      C1890   1.418       .  A
C1889      C1894   1.406       .  A
C1890      C1891   1.403       .  A
C1890     Br1906   1.921       .  S
C1891      H1895   1.083       .  S
C1891      C1892   1.400       .  A
C1892      C1896   1.477       .  S
C1892      C1893   1.406       .  A
C1893      C1894   1.396       .  A
C1893     Br1905   1.920       .  S
C1894      H1897   1.083       .  S
C1896      C1898   1.401       .  A
C1896      C1902   1.407       .  A
C1898      H1903   1.083       .  S
C1898      C1899   1.401       .  A
C1899      C1900   1.413       .  A
C1899     Br1907   1.919       .  S
C1900      C1901   1.405       .  A
C1901      H1904   1.084       .  S
C1901      C1902   1.396       .  A
C1902     Br1908   1.920       .  S
C1909      C1910   1.416       .  A
C1909      C1914   1.405       .  A
C1910      C1911   1.399       .  A
C1910     Br1926   1.922       .  S
C1911      H1915   1.084       .  S
C1911      C1912   1.400       .  A
C1912      C1916   1.476       .  S
C1912      C1913   1.407       .  A
C1913      C1914   1.397       .  A
C1913     Br1925   1.919       .  S
C1914      H1917   1.083       .  S
C1916      C1918   1.402       .  A
C1916      C1922   1.409       .  A
C1918      H1923   1.084       .  S
C1918      C1919   1.396       .  A
C1919      C1920   1.408       .  A
C1919     Br1927   1.919       .  S
C1920      C1921   1.402       .  A
C1921      H1924   1.083       .  S
C1921      C1922   1.400       .  A
C1922     Br1928   1.918       .  S
C1929      C1930   1.419       .  A
C1929      C1934   1.410       .  A
C1930      C1931   1.396       .  A
C1930     Br1946   1.924       .  S
C1931      H1935   1.084       .  S
C1931      C1932   1.398       .  A
C1932      C1936   1.474       .  S
C1932      C1933   1.403       .  A
C1933      C1934   1.401       .  A
C1933     Br1945   1.917       .  S
C1934      H1937   1.083       .  S
C1936      C1938   1.401       .  A
C1936      C1942   1.407       .  A
C1938      H1943   1.084       .  S
C1938      C1939   1.396       .  A
C1939      C1940   1.408       .  A
C1939     Br1947   1.919       .  S
C1940      C1941   1.404       .  A
C1941      H1944   1.083       .  S
C1941      C1942   1.401       .  A
C1942     Br1948   1.918       .  S
C1949      C1950   1.408       .  A
C1949      C1954   1.402       .  A
C1950      C1951   1.395       .  A
C1950     Br1966   1.920       .  S
C1951      H1955   1.084       .  S
C1951      C1952   1.401       .  A
C1952      C1956   1.471       .  S
C1952      C1953   1.407       .  A
C1953      C1954   1.399       .  A
C1953     Br1965   1.917       .  S
C1954      H1957   1.083       .  S
C1956      C1958   1.402       .  A
C1956      C1962   1.405       .  A
C1958      H1963   1.083       .  S
C1958      C1959   1.401       .  A
C1959      C1960   1.410       .  A
C1959     Br1967   1.918       .  S
C1960      C1961   1.402       .  A
C1961      H1964   1.084       .  S
C1961      C1962   1.393       .  A
C1962     Br1968   1.920       .  S
C1969      C1970   1.415       .  A
C1969      C1974   1.405       .  A
C1970      C1971   1.405       .  A
C1970     Br1986   1.919       .  S
C1971      H1975   1.083       .  S
C1971      C1972   1.404       .  A
C1972      C1976   1.481       .  S
C1972      C1973   1.408       .  A
C1973      C1974   1.394       .  A
C1973     Br1985   1.921       .  S
C1974      H1977   1.083       .  S
C1976      C1978   1.404       .  A
C1976      C1982   1.410       .  A
C1978      H1983   1.083       .  S
C1978      C1979   1.398       .  A
C1979      C1980   1.407       .  A
C1979     Br1987   1.919       .  S
C1980      C1981   1.402       .  A
C1981      H1984   1.083       .  S
C1981      C1982   1.401       .  A
C1982     Br1988   1.919       .  S
C1989      C1990   1.410       .  A
C1989      C1994   1.403       .  A
C1990      C1991   1.398       .  A
C1990     Br2006   1.920       .  S
C1991      H1995   1.084       .  S
C1991      C1992   1.402       .  A
C1992      C1996   1.478       .  S
C1992      C1993   1.409       .  A
C1993      C1994   1.399       .  A
C1993     Br2005   1.919       .  S
C1994      H1997   1.084       .  S
C1996      C1998   1.401       .  A
C1996      C2002   1.406       .  A
C1998      H2003   1.084       .  S
C1998      C1999   1.398       .  A
C1999      C2000   1.417       .  A
C1999     Br2007   1.922       .  S
C2000      C2001   1.408       .  A
C2001      H2004   1.083       .  S
C2001      C2002   1.399       .  A
C2002     Br2008   1.919       .  S
C2009      C2010   1.415       .  A
C2009      C2014   1.405       .  A
C2010      C2011   1.400       .  A
C2010     Br2026   1.921       .  S
C2011      H2015   1.084       .  S
C2011      C2012   1.400       .  A
C2012      C2016   1.479       .  S
C2012      C2013   1.409       .  A
C2013      C2014   1.400       .  A
C2013     Br2025   1.920       .  S
C2014      H2017   1.083       .  S
C2016      C2018   1.403       .  A
C2016      C2022   1.408       .  A
C2018      H2023   1.083       .  S
C2018      C2019   1.401       .  A
C2019      C2020   1.410       .  A
C2019     Br2027   1.919       .  S
C2020      C2021   1.403       .  A
C2021      H2024   1.084       .  S
C2021      C2022   1.398       .  A
C2022     Br2028   1.919       .  S
C2029      C2030   1.412       .  A
C2029      C2034   1.404       .  A
C2030      C2031   1.399       .  A
C2030     Br2046   1.920       .  S
C2031      H2035   1.083       .  S
C2031      C2032   1.400       .  A
C2032      C2036   1.478       .  S
C2032      C2033   1.408       .  A
C2033      C2034   1.401       .  A
C2033     Br2045   1.919       .  S
C2034      H2037   1.083       .  S
C2036      C2038   1.401       .  A
C2036      C2042   1.409       .  A
C2038      H2043   1.084       .  S
C2038      C2039   1.398       .  A
C2039      C2040   1.411       .  A
C2039     Br2047   1.919       .  S
C2040      C2041   1.404       .  A
C2041      H2044   1.083       .  S
C2041      C2042   1.402       .  A
C2042     Br2048   1.918       .  S
C2049      C2050   1.418       .  A
C2049      C2054   1.410       .  A
C2050      C2051   1.398       .  A
C2050     Br2066   1.923       .  S
C2051      H2055   1.084       .  S
C2051      C2052   1.401       .  A
C2052      C2056   1.481       .  S
C2052      C2053   1.406       .  A
C2053      C2054   1.402       .  A
C2053     Br2065   1.918       .  S
C2054      H2057   1.083       .  S
C2056      C2058   1.404       .  A
C2056      C2062   1.409       .  A
C2058      H2063   1.083       .  S
C2058      C2059   1.400       .  A
C2059      C2060   1.406       .  A
C2059     Br2067   1.918       .  S
C2060      C2061   1.402       .  A
C2061      H2064   1.084       .  S
C2061      C2062   1.399       .  A
C2062     Br2068   1.919       .  S
C2069      C2070   1.414       .  A
C2069      C2074   1.405       .  A
C2070      C2071   1.403       .  A
C2070     Br2086   1.920       .  S
C2071      H2075   1.083       .  S
C2071      C2072   1.404       .  A
C2072      C2076   1.482       .  S
C2072      C2073   1.407       .  A
C2073      C2074   1.396       .  A
C2073     Br2085   1.920       .  S
C2074      H2077   1.083       .  S
C2076      C2078   1.403       .  A
C2076      C2082   1.409       .  A
C2078      H2083   1.084       .  S
C2078      C2079   1.398       .  A
C2079      C2080   1.409       .  A
C2079     Br2087   1.920       .  S
C2080      C2081   1.404       .  A
C2081      H2084   1.083       .  S
C2081      C2082   1.402       .  A
C2082     Br2088   1.918       .  S
