geometry optimzed in LAMMPS
_audit_creation_date              2020-11-30 
_audit_creation_method            'lammps2cif' 
_symmetry_space_group_name_H-M    'P1' 
_symmetry_Int_Tables_number       1 
_symmetry_cell_setting            triclinic 
loop_ 
_symmetry_equiv_pos_as_xyz 
  x,y,z 
_cell_length_a                    31.48224609 
_cell_length_b                    31.67551718068743 
_cell_length_c                    30.108409999754635 
_cell_angle_alpha                 91.0136195670928 
_cell_angle_beta                  89.69388318757805 
_cell_angle_gamma                 89.62794836403768 
loop_ 
_atom_site_label 
_atom_site_type_symbol 
_atom_site_fract_x 
_atom_site_fract_y 
_atom_site_fract_z 
_atom_site_charge 
C1          C  0.58504511  0.91897001  0.51136675    -0.01500
C2          C  0.39768951  0.92148081  0.50290508    -0.01500
C3          C  0.39454233  0.10254337  0.99817930    -0.01500
C4          C  0.58881603  0.10359582  0.49883750    -0.01500
C5          C  0.89333097  0.60288105  0.50250891    -0.01500
C6          C  0.89705039  0.42003329  0.50249982    -0.01500
C7          C  0.08778893  0.41467312  0.49170434    -0.01500
C8          C  0.08963007  0.60497337  0.99935249    -0.01500
O9          O  0.53667617  0.74731949  0.25757125    -0.56800
C10         C  0.66853874  0.71779132  0.25432673     0.75800
O11         O  0.62741122  0.84364585  0.20710187    -0.58000
C12         C  0.51496737  0.77999184  0.24879934     0.75800
C13         C  0.61419575  0.82600908  0.34237567     0.78100
Cd14       Cd  0.60687109  0.78517782  0.25589390     1.37500
O15         O  0.62920379  0.70959648  0.25401036    -0.56800
O16         O  0.59629413  0.79082812  0.33588657    -0.55700
C17         C  0.61989949  0.82333102  0.17134904     0.78100
O18         O  0.63216385  0.84211651  0.30901896    -0.58000
O19         O  0.67870870  0.75632115  0.25563928    -0.56500
O20         O  0.53551345  0.81364689  0.24321282    -0.56500
O21         O  0.60934069  0.78508195  0.17518525    -0.55600
O22         O  0.44578197  0.74777367  0.25322431    -0.56800
C23         C  0.31433568  0.71914581  0.24876685     0.75800
O24         O  0.35297814  0.84553491  0.29963824    -0.58000
C25         C  0.46819118  0.78019068  0.24630110     0.75800
C26         C  0.36238170  0.82357905  0.16065402     0.78100
Cd27       Cd  0.37613981  0.78666642  0.24709601     1.37500
O28         O  0.35340301  0.71097997  0.24266755    -0.56800
O29         O  0.37917934  0.78755899  0.16554063    -0.55700
C30         C  0.37161490  0.83000565  0.33287383     0.78100
O31         O  0.35016601  0.84247433  0.19599672    -0.58000
O32         O  0.30447431  0.75757056  0.25480468    -0.56500
O33         O  0.44826137  0.81394014  0.23807928    -0.56500
O34         O  0.38915235  0.79434211  0.32684129    -0.55600
O35         O  0.74062186  0.46386337  0.28370601    -0.56800
C36         C  0.70379042  0.33207366  0.25139393     0.75800
O37         O  0.82930946  0.37065281  0.19979553    -0.58000
C38         C  0.75294695  0.48591579  0.25146971     0.75800
C39         C  0.82260245  0.38815772  0.32881415     0.78100
Cd40       Cd  0.76999321  0.39532821  0.25040078     1.37500
O41         O  0.69435846  0.37104100  0.25117607    -0.56800
O42         O  0.78439265  0.37622213  0.32788950    -0.55700
C43         C  0.81034751  0.38136438  0.16458838     0.78100
O44         O  0.83743190  0.40201605  0.29275366    -0.58000
O45         O  0.74289999  0.32286637  0.25105767    -0.56500
O46         O  0.76911346  0.46594651  0.21893352    -0.56500
O47         O  0.77284390  0.39525277  0.16965471    -0.55600
O48         O  0.74255496  0.55467197  0.28582279    -0.56800
C49         C  0.70137637  0.68480883  0.25342103     0.75800
O50         O  0.83423377  0.61958153  0.29515152    -0.58000
C51         C  0.75251480  0.53242641  0.25198931     0.75800
C52         C  0.81340268  0.63853750  0.17043435     0.78100
Cd53       Cd  0.76867316  0.62296730  0.25271811     1.37500
O54         O  0.69275952  0.64577620  0.25275733    -0.56800
O55         O  0.77384704  0.63188789  0.17270104    -0.55700
C56         C  0.81935495  0.63475781  0.33115298     0.78100
O57         O  0.83283822  0.64037232  0.20716613    -0.58000
O58         O  0.74022503  0.69455197  0.25344971    -0.56500
O59         O  0.76574564  0.55221005  0.21873332    -0.56500
O60         O  0.78101318  0.64689229  0.33051258    -0.55600
O61         O  0.35544259  0.30905154  0.26148266    -0.56800
C62         C  0.47183988  0.24039149  0.25383164     0.75800
O63         O  0.37152533  0.16918287  0.29360201    -0.58000
C64         C  0.31746798  0.30105731  0.25033309     0.75800
C65         C  0.37013469  0.19977645  0.16195063     0.78100
Cd66       Cd  0.38023209  0.23432580  0.25061079     1.37500
O67         O  0.44971749  0.27402446  0.25346934    -0.56800
O68         O  0.39101786  0.23297116  0.17022645    -0.55700
C69         C  0.36689991  0.18744389  0.33106398     0.78100
O70         O  0.35206750  0.18291249  0.19486030    -0.58000
O71         O  0.45173195  0.20607568  0.25349922    -0.56500
O72         O  0.30915968  0.26308666  0.24026800    -0.56500
O73         O  0.36550606  0.22737758  0.33094471    -0.55600
O74         O  0.54131974  0.27225661  0.25732593    -0.56800
C75         C  0.67151909  0.29868703  0.25163762     0.75800
O76         O  0.62271635  0.16528240  0.29128671    -0.58000
C77         C  0.51852357  0.23956187  0.25360176     0.75800
C78         C  0.62023350  0.19546983  0.16122442     0.78100
Cd79       Cd  0.61012531  0.23107339  0.24967639     1.37500
O80         O  0.63206295  0.30663310  0.25028933    -0.56800
O81         O  0.60256526  0.23084599  0.16880628    -0.55700
C82         C  0.62190179  0.18275947  0.32940826     0.78100
O83         O  0.63601739  0.17732140  0.19451292    -0.58000
O84         O  0.68220681  0.26014325  0.25282059    -0.56500
O85         O  0.53795287  0.20478065  0.24905150    -0.56500
O86         O  0.61797147  0.22256851  0.33053392    -0.55600
O87         O  0.29018433  0.37177231  0.26008888    -0.56800
C88         C  0.22209602  0.48617464  0.24784043     0.75800
O89         O  0.16145489  0.37000713  0.19208794    -0.58000
C90         C  0.28403031  0.33359498  0.24870094     0.75800
C91         C  0.16365772  0.37796399  0.32217347     0.78100
Cd92       Cd  0.21537477  0.39453787  0.24514859     1.37500
O93         O  0.18756901  0.46653697  0.24392279    -0.56800
O94         O  0.20369630  0.38010565  0.32429715    -0.55700
C95         C  0.18073703  0.38248869  0.15778859     0.78100
O96         O  0.14755188  0.38157981  0.28409501    -0.58000
O97         O  0.25529615  0.46369004  0.25136214    -0.56500
O98         O  0.24711826  0.32429932  0.23552378    -0.56500
O99         O  0.21738813  0.39775602  0.16383599    -0.55600
O100        O  0.28991784  0.64732863  0.24305605    -0.56800
C101        C  0.22209456  0.53269065  0.24828688     0.75800
O102        O  0.15818941  0.65093106  0.30223155    -0.58000
C103        C  0.28149286  0.68627505  0.24891999     0.75800
C104        C  0.16542741  0.63727923  0.17134226     0.78100
Cd105      Cd  0.21429682  0.62444504  0.25127723     1.37500
O106        O  0.18772058  0.55261642  0.24332459    -0.56800
O107        O  0.20544266  0.64131270  0.17144956    -0.55700
C108        C  0.17604752  0.63920462  0.33748192     0.78100
O109        O  0.14821782  0.62953720  0.20830990    -0.58000
O110        O  0.25506849  0.55491504  0.25375905    -0.56500
O111        O  0.24284358  0.69604073  0.25501919    -0.56500
O112        O  0.21277326  0.62315562  0.33295009    -0.55600
C113        C  0.17599281  0.62761520  0.41880734    -0.20300
C114        C  0.15421309  0.64097747  0.38118171    -0.08400
C115        C  0.11039432  0.64963316  0.38476074     0.30500
C116        C  0.08823180  0.64114449  0.42410714    -0.20300
C117        C  0.10917682  0.62330863  0.46071573    -0.08400
C118        C  0.15409079  0.61847233  0.45770008     0.30500
F119        F  0.17656503  0.60085223  0.49111227    -0.18900
H120        H  0.20977848  0.62106658  0.41722407     0.18800
H121        H  0.05416828  0.64496717  0.42377034     0.18900
F122        F  0.08810801  0.66277107  0.34905557    -0.18900
C123        C  0.13438335  0.65439394  0.05153543    -0.20300
C124        C  0.10239909  0.62351741  0.04586702    -0.08400
C125        C  0.08438124  0.60697859  0.08518215     0.30500
C126        C  0.10322030  0.61452025  0.12648590    -0.20300
C127        C  0.14033049  0.63852653  0.12994379    -0.08400
C128        C  0.15469389  0.66002259  0.09247524     0.30500
F129        F  0.18929640  0.68529574  0.09496859    -0.18900
H130        H  0.14619606  0.67241291  0.02408991     0.18800
H131        H  0.09076100  0.59848757  0.15518705     0.18900
F132        F  0.05171936  0.57927922  0.08330046    -0.18900
C133        C  0.07833269  0.40046234  0.40714503    -0.20300
C134        C  0.10038308  0.39135193  0.44680255    -0.08400
C135        C  0.13459037  0.36203914  0.44186048     0.30500
C136        C  0.15425578  0.35591674  0.40049197    -0.20300
C137        C  0.13741813  0.37446331  0.36259795    -0.08400
C138        C  0.09712350  0.39339299  0.36550136     0.30500
F139        F  0.07775569  0.40873535  0.32890823    -0.18900
H140        H  0.04799423  0.41678229  0.40825194     0.18800
H141        H  0.18319029  0.33726121  0.39821919     0.18900
F142        F  0.14874060  0.33811502  0.47562942    -0.18900
C143        C  0.15945243  0.40441369  0.03706448    -0.20300
C144        C  0.11486759  0.39847911  0.03428174    -0.08400
C145        C  0.09474465  0.37879351  0.07074679     0.30500
C146        C  0.11732800  0.37097586  0.10970320    -0.20300
C147        C  0.16027862  0.38196989  0.11361406    -0.08400
C148        C  0.18165314  0.39700166  0.07614077     0.30500
F149        F  0.22329926  0.40768390  0.07802290    -0.18900
H150        H  0.17647670  0.41857700  0.00979729     0.18800
H151        H  0.10038546  0.35822601  0.13778173     0.18900
F152        F  0.05318598  0.36796973  0.07031363    -0.18900
C153        C  0.09202258  0.48765931  0.45184972    -0.20300
C154        C  0.10091843  0.46314620  0.48965761    -0.08400
C155        C  0.11955542  0.49073750  0.02922521     0.30500
C156        C  0.12228098  0.53467216  0.02861999    -0.20300
C157        C  0.10490300  0.55776952  0.99370850    -0.08400
C158        C  0.09182590  0.53166873  0.45329022     0.30500
F159        F  0.07686032  0.55185309  0.41711889    -0.18900
H160        H  0.08166954  0.47465093  0.42106395     0.18800
H161        H  0.13408907  0.55001151  0.05829129     0.18900
F162        F  0.12463400  0.47400490  0.06999358    -0.18900
C163        C  0.83173910  0.40629719  0.04452110    -0.20300
C164        C  0.87611356  0.39994614  0.04045718    -0.08400
C165        C  0.89664830  0.37872485  0.07568398     0.30500
C166        C  0.87442226  0.36997593  0.11509850    -0.20300
C167        C  0.83133624  0.38101078  0.12016319    -0.08400
C168        C  0.80971375  0.39692353  0.08328804     0.30500
F169        F  0.76764598  0.40646212  0.08545387    -0.18900
H170        H  0.81432189  0.42155579  0.01827478     0.18800
H171        H  0.89161380  0.35652199  0.14256542     0.18900
F172        F  0.93841011  0.36821195  0.07392525    -0.18900
C173        C  0.88230905  0.41517585  0.37525672    -0.20300
C174        C  0.84746134  0.38823676  0.37049466    -0.08400
C175        C  0.83434195  0.36476057  0.40727134     0.30500
C176        C  0.85282318  0.37155190  0.44897772    -0.20300
C177        C  0.88335785  0.40351104  0.45554720    -0.08400
C178        C  0.90041817  0.42247695  0.41695530     0.30500
F179        F  0.93179176  0.45157973  0.42026065    -0.18900
H180        H  0.89379949  0.43290206  0.34724864     0.18800
H181        H  0.84155588  0.35274285  0.47611139     0.18900
F182        F  0.80265612  0.33610543  0.40330837    -0.18900
C183        C  0.97488149  0.45086706  0.02368004    -0.20300
C184        C  0.94689161  0.41573584  0.50407694    -0.08400
C185        C  0.96876113  0.38060991  0.48438826     0.30500
C186        C  0.01341168  0.37987785  0.48091670    -0.20300
C187        C  0.03848368  0.41310907  0.49843797    -0.08400
C188        C  0.01891053  0.44908015  0.02389542     0.30500
F189        F  0.03859196  0.47961632  0.04783397    -0.18900
H190        H  0.96263110  0.47860153  0.03957208     0.18800
H191        H  0.02832600  0.35291612  0.46453551     0.18900
F192        F  0.94719988  0.34700583  0.46765052    -0.18900
C193        C  0.83270032  0.66077039  0.40903082    -0.20300
C194        C  0.84454233  0.63527011  0.37236369    -0.08400
C195        C  0.87846418  0.60682267  0.37680088     0.30500
C196        C  0.89631608  0.60037258  0.41820976    -0.20300
C197        C  0.88021316  0.62087266  0.45689508    -0.08400
C198        C  0.85145920  0.65494220  0.45065884     0.30500
F199        F  0.84041164  0.68208254  0.48413950    -0.18900
H200        H  0.80802503  0.68463058  0.40571682     0.18800
H201        H  0.92004341  0.57537263  0.42051154     0.18900
F202        F  0.89145108  0.58176339  0.34223113    -0.18900
C203        C  0.89977801  0.64019425  0.08127405    -0.20300
C204        C  0.87654083  0.62826370  0.04288388    -0.08400
C205        C  0.83168167  0.62623479  0.04736762     0.30500
C206        C  0.81173223  0.63319625  0.08821571    -0.20300
C207        C  0.83528873  0.64116174  0.12671137    -0.08400
C208        C  0.87951088  0.64629064  0.12264699     0.30500
F209        F  0.90365616  0.65426387  0.15902954    -0.18900
H210        H  0.93402743  0.64078427  0.08107801     0.18800
H211        H  0.77764916  0.62904254  0.09009315     0.18900
F212        F  0.80712999  0.61280739  0.01305056    -0.18900
C213        C  0.89207027  0.53767131  0.04519404    -0.20300
C214        C  0.87761616  0.55648952  0.50796195    -0.08400
C215        C  0.85539896  0.53275264  0.47542277     0.30500
C216        C  0.85832156  0.48871568  0.47509619    -0.20300
C217        C  0.88181768  0.46735573  0.50799554    -0.08400
C218        C  0.88992752  0.49370015  0.04642170     0.30500
F219        F  0.90035200  0.47446314  0.08486924    -0.18900
H220        H  0.90458857  0.55414477  0.07397399     0.18800
H221        H  0.84255678  0.47205101  0.44838159     0.18900
F222        F  0.83132312  0.55108494  0.44383023    -0.18900
C223        C  0.97108100  0.64490745  0.00500652    -0.20300
C224        C  0.94327397  0.60334317  0.50194918    -0.08400
C225        C  0.96735982  0.56600414  0.49431727     0.30500
C226        C  0.01102812  0.56609385  0.49492092    -0.20300
C227        C  0.03966916  0.60697608  0.99726186    -0.08400
C228        C  0.01615165  0.64505277  0.00328575     0.30500
F229        F  0.03673909  0.68235574  0.00803253    -0.18900
H230        H  0.95428144  0.67463750  0.00936074     0.18800
H231        H  0.02480060  0.53510464  0.49473516     0.18900
F232        F  0.94998082  0.52866310  0.48197038    -0.18900
C233        C  0.60060020  0.11973400  0.37206359    -0.20300
C234        C  0.62250333  0.15801495  0.37055459    -0.08400
C235        C  0.64006989  0.17461274  0.40977922     0.30500
C236        C  0.63316733  0.15485780  0.45037124    -0.20300
C237        C  0.60628622  0.11933568  0.45340832    -0.08400
C238        C  0.59205335  0.10079005  0.41272974     0.30500
F239        F  0.56599663  0.06675677  0.41274775    -0.18900
H240        H  0.58682913  0.10631319  0.34212600     0.18800
H241        H  0.64718651  0.16934730  0.47948959     0.18900
F242        F  0.66282852  0.21084655  0.40910931    -0.18900
C243        C  0.63515033  0.11620436  0.06639912    -0.20300
C244        C  0.60293421  0.12913121  0.03689084    -0.08400
C245        C  0.58438880  0.16947360  0.04486101     0.30500
C246        C  0.59217411  0.19180562  0.08426265    -0.20300
C247        C  0.61950631  0.17549777  0.11638894    -0.08400
C248        C  0.64265183  0.13849308  0.10613983     0.30500
F249        F  0.67173496  0.12317305  0.13491051    -0.18900
H250        H  0.65364031  0.08788059  0.05983862     0.18800
H251        H  0.57514265  0.22115393  0.09040357     0.18900
F252        F  0.55757479  0.18708418  0.01525660    -0.18900
C253        C  0.35565296  0.16104441  0.45300018    -0.20300
C254        C  0.38022262  0.12351177  0.45573069    -0.08400
C255        C  0.39392050  0.10460165  0.41472172     0.30500
C256        C  0.38641213  0.12411626  0.37428009    -0.20300
C257        C  0.36618219  0.16352821  0.37288788    -0.08400
C258        C  0.34986169  0.18134883  0.41249376     0.30500
F259        F  0.32945497  0.21922681  0.41238184    -0.18900
H260        H  0.34254092  0.17657808  0.48225295     0.18800
H261        H  0.39953611  0.10976849  0.34423623     0.18900
F262        F  0.41878886  0.06935553  0.41407757    -0.18900
C263        C  0.40311808  0.17005995  0.04493777    -0.20300
C264        C  0.38043373  0.13222427  0.03736323    -0.08400
C265        C  0.34594007  0.12419351  0.06626220     0.30500
C266        C  0.34148900  0.14721100  0.10633238    -0.20300
C267        C  0.36916299  0.18057539  0.11671275    -0.08400
C268        C  0.39821237  0.19345815  0.08418896     0.30500
F269        F  0.42401759  0.22706770  0.09123920    -0.18900
H270        H  0.42683753  0.18038842  0.02145233     0.18800
H271        H  0.31701529  0.13827785  0.12970304     0.18900
F272        F  0.31721087  0.09365801  0.05668982    -0.18900
C273        C  0.51338390  0.09139124  0.03465217    -0.20300
C274        C  0.53873046  0.10758949  0.49950987    -0.08400
C275        C  0.51438624  0.12791480  0.46635123     0.30500
C276        C  0.47016949  0.12715300  0.46721016    -0.20300
C277        C  0.44678093  0.10782224  0.50156491    -0.08400
C278        C  0.46909921  0.09103759  0.03535444     0.30500
F279        F  0.45122632  0.08624720  0.07563774    -0.18900
H280        H  0.52839763  0.08629747  0.06618183     0.18800
H281        H  0.45500055  0.14571623  0.44212108     0.18900
F282        F  0.53181356  0.15433956  0.43646183    -0.18900
C283        C  0.42385215  0.87957603  0.43254499    -0.20300
C284        C  0.38990033  0.89822858  0.45729324    -0.08400
C285        C  0.34831499  0.89002070  0.44150674     0.30500
C286        C  0.34185370  0.86932226  0.40022068    -0.20300
C287        C  0.37648496  0.85317774  0.37558893    -0.08400
C288        C  0.41730872  0.85768038  0.39280248     0.30500
F289        F  0.45134876  0.84081980  0.37086251    -0.18900
H290        H  0.45607992  0.87963211  0.44429753     0.18800
H291        H  0.30983204  0.86480047  0.38818339     0.18900
F292        F  0.31391876  0.90278556  0.46569917    -0.18900
C293        C  0.38253794  0.82457600  0.08056244    -0.20300
C294        C  0.36011447  0.84322649  0.11622057    -0.08400
C295        C  0.33980255  0.88229368  0.10962700     0.30500
C296        C  0.34593542  0.90409559  0.06991421    -0.23500
C297        C  0.37507971  0.88898120  0.03736779    -0.08400
C298        C  0.38999169  0.84683910  0.04172224     0.30500
F299        F  0.41656214  0.82892435  0.01108706    -0.18900
H300        H  0.39750452  0.79393102  0.08398686     0.18800
H301        H  0.32990130  0.93409587  0.06652416     0.18900
F302        F  0.31580572  0.90054941  0.14233356    -0.18900
C303        C  0.38651959  0.98810480  0.04216003    -0.20300
C304        C  0.38066293  0.96791252  0.50626987    -0.08400
C305        C  0.36300898  0.99114061  0.47101007     0.30500
C306        C  0.36129073  0.03538614  0.47325280    -0.20300
C307        C  0.38208406  0.05865123  0.50728097    -0.08400
C308        C  0.38552438  0.03213494  0.04310519     0.30500
F309        F  0.38748497  0.05082132  0.08374417    -0.18900
H310        H  0.39622528  0.97243539  0.07216041     0.18800
H311        H  0.34585753  0.05074611  0.44601773     0.18900
F312        F  0.35029983  0.97279928  0.43250277    -0.18900
C313        C  0.62939628  0.90558255  0.08204899    -0.20300
C314        C  0.60098307  0.88935201  0.04980069    -0.08400
C315        C  0.58795494  0.84683403  0.05442132     0.30500
C316        C  0.59759174  0.82450558  0.09257494    -0.20300
C317        C  0.61988082  0.84366131  0.12754340    -0.08400
C318        C  0.63727313  0.88382143  0.12129472     0.30500
F319        F  0.66044835  0.90282881  0.15375695    -0.18900
H320        H  0.64380710  0.93620330  0.07871107     0.18800
H321        H  0.58445737  0.79319993  0.09611249     0.18900
F322        F  0.56211944  0.82789764  0.02435041    -0.18900
C323        C  0.64348913  0.86727842  0.40853570    -0.20300
C324        C  0.60952522  0.84845937  0.38559714    -0.08400
C325        C  0.56902994  0.85041885  0.40451786     0.30500
C326        C  0.56173201  0.87296963  0.44368233    -0.20300
C327        C  0.59463275  0.89437634  0.46668052    -0.08400
C328        C  0.63644639  0.88820345  0.44981014     0.30500
F329        F  0.67036707  0.90279959  0.47295597    -0.18900
H330        H  0.67544885  0.86467264  0.39524992     0.18800
H331        H  0.52976038  0.87156549  0.45658149     0.18900
F332        F  0.53585690  0.83068401  0.38462968    -0.18900
C333        C  0.46376862  0.90853834  0.04836849    -0.20300
C334        C  0.44621750  0.92732226  0.51097129    -0.08400
C335        C  0.47107153  0.94992350  0.48037247     0.30500
C336        C  0.51515783  0.94851136  0.48263101    -0.20300
C337        C  0.53614122  0.92584560  0.51618935    -0.08400
C338        C  0.50794459  0.90867839  0.05217817     0.30500
F339        F  0.52470714  0.89589075  0.09111729    -0.18900
H340        H  0.44593827  0.89723855  0.07643773     0.18800
H341        H  0.53318961  0.96270431  0.45610586     0.18900
F342        F  0.45291877  0.96981055  0.44563876    -0.18900
C343        C  0.62096871  0.98528805  0.47660690    -0.20300
C344        C  0.60160735  0.96532165  0.51297334    -0.08400
C345        C  0.58754549  0.98976053  0.04919016     0.30500
C346        C  0.58946569  0.03334858  0.04561340    -0.20300
C347        C  0.60136794  0.05569501  0.50601079    -0.08400
C348        C  0.62347204  0.02947996  0.47461437     0.30500
F349        F  0.64813415  0.04546143  0.44203630    -0.18900
H350        H  0.63276693  0.96771048  0.44820018     0.18800
H351        H  0.58187144  0.05152435  0.07525865     0.18900
F352        F  0.57050834  0.97411559  0.08697743    -0.18900
C353        C  0.58234926  0.91664415  0.01205360    -0.01500
C354        C  0.39484848  0.91756323  0.00104145    -0.01500
C355        C  0.39650931  0.10605480  0.50124056    -0.01500
C356        C  0.58745888  0.10050941  0.99764851    -0.01500
C357        C  0.89779497  0.60632837  0.00162012    -0.01500
C358        C  0.89935539  0.42270488  0.00183011    -0.01500
C359        C  0.09089765  0.41835114  0.99448651    -0.01500
C360        C  0.08503545  0.60122770  0.49898091    -0.01500
O361        O  0.53558060  0.74720349  0.75296906    -0.56800
C362        C  0.66770251  0.71966763  0.75832496     0.75800
O363        O  0.62704565  0.84472272  0.70693953    -0.58000
C364        C  0.51321641  0.78042054  0.74917631     0.75800
C365        C  0.61059977  0.82576003  0.84241352     0.78100
Cd366      Cd  0.60516613  0.78622108  0.75586465     1.37500
O367        O  0.62849080  0.71109894  0.75646167    -0.56800
O368        O  0.59188871  0.79116738  0.83500095    -0.55700
C369        C  0.61908936  0.82471843  0.67111575     0.78100
O370        O  0.62985371  0.84194564  0.80988527    -0.58000
O371        O  0.67747655  0.75830300  0.75944409    -0.56500
O372        O  0.53314122  0.81494649  0.74848245    -0.56500
O373        O  0.60750029  0.78677059  0.67495788    -0.55600
O374        O  0.44452712  0.74657802  0.74735800    -0.56800
C375        C  0.31173119  0.71824593  0.74591149     0.75800
O376        O  0.34705012  0.84129247  0.79889503    -0.58000
C377        C  0.46640313  0.78011478  0.74639182     0.75800
C378        C  0.36341621  0.82410282  0.65995836     0.78100
Cd379      Cd  0.37415435  0.78513284  0.74538377     1.37500
O380        O  0.35105256  0.70940215  0.74469562    -0.56800
O381        O  0.37964767  0.78776122  0.66437141    -0.55700
C382        C  0.36767836  0.82666153  0.83129328     0.78100
O383        O  0.35042862  0.84241031  0.69531502    -0.58000
O384        O  0.30194999  0.75698562  0.74718053    -0.56500
O385        O  0.44590563  0.81442887  0.74351564    -0.56500
O386        O  0.38734442  0.79224931  0.82435759    -0.55600
O387        O  0.75472473  0.46612972  0.79148380    -0.56800
C388        C  0.70082794  0.33326272  0.75479602     0.75800
O389        O  0.82965562  0.37656931  0.70311677    -0.58000
C390        C  0.74904765  0.48733746  0.75685676     0.75800
C391        C  0.82238892  0.38822274  0.82934775     0.78100
Cd392      Cd  0.76767623  0.39668266  0.75246392     1.37500
O393        O  0.69245973  0.37187127  0.76266495    -0.56800
O394        O  0.78532143  0.37297757  0.82804743    -0.55700
C395        C  0.81026644  0.38412298  0.66727969     0.78100
O396        O  0.83538974  0.40499157  0.79392496    -0.58000
O397        O  0.73923590  0.32428168  0.74638069    -0.56500
O398        O  0.74690851  0.46636462  0.72086925    -0.56500
O399        O  0.77189756  0.39554258  0.67147756    -0.55600
O400        O  0.75829704  0.55495542  0.79251280    -0.56800
C401        C  0.70076085  0.68688571  0.75840374     0.75800
O402        O  0.83485324  0.62256112  0.79586718    -0.58000
C403        C  0.74963284  0.53397136  0.75768536     0.75800
C404        C  0.81173693  0.63786955  0.67163423     0.78100
Cd405      Cd  0.76798823  0.62463317  0.75538420     1.37500
O406        O  0.69232765  0.64793235  0.76052203    -0.56800
O407        O  0.77238818  0.63084529  0.67489653    -0.55700
C408        C  0.82113481  0.63890158  0.83190497     0.78100
O409        O  0.83178602  0.64039759  0.70790830    -0.58000
O410        O  0.73953247  0.69659067  0.75583089    -0.56500
O411        O  0.74549119  0.55504855  0.72275047    -0.56500
O412        O  0.78271408  0.65109647  0.83212878    -0.55600
O413        O  0.35016957  0.31107823  0.76420536    -0.56800
C414        C  0.46696489  0.24379706  0.75809981     0.75800
O415        O  0.36247594  0.17125444  0.79338822    -0.58000
C416        C  0.31221772  0.30263331  0.75345970     0.75800
C417        C  0.36835849  0.20180392  0.66485726     0.78100
Cd418      Cd  0.37540644  0.23682615  0.75327827     1.37500
O419        O  0.44490717  0.27602754  0.74857936    -0.56800
O420        O  0.38986633  0.23436392  0.67388426    -0.55700
C421        C  0.36084966  0.18831294  0.83172908     0.78100
O422        O  0.34850792  0.18560089  0.69698414    -0.58000
O423        O  0.44673786  0.21065225  0.76682360    -0.56500
O424        O  0.30403549  0.26452967  0.74406540    -0.56500
O425        O  0.36283743  0.22824547  0.83359784    -0.55600
O426        O  0.53648379  0.27446055  0.74825443    -0.56800
C427        C  0.66810539  0.30013004  0.75490628     0.75800
O428        O  0.61431238  0.16606701  0.79205956    -0.58000
C429        C  0.51373080  0.24299135  0.75778023     0.75800
C430        C  0.61585128  0.19664469  0.66421598     0.78100
Cd431      Cd  0.60564941  0.23308413  0.75226215     1.37500
O432        O  0.62941803  0.30777100  0.76405959    -0.56800
O433        O  0.59647489  0.23117708  0.67156080    -0.55700
C434        C  0.62016343  0.18261292  0.83007288     0.78100
O435        O  0.63208729  0.17929038  0.69770220    -0.58000
O436        O  0.67758381  0.26214595  0.74542636    -0.56500
O437        O  0.53330354  0.20917027  0.76595531    -0.56500
O438        O  0.62177816  0.22257341  0.83181563    -0.55600
O439        O  0.28559919  0.37369811  0.75884578    -0.56800
C440        C  0.21896303  0.48681712  0.75105803     0.75800
O441        O  0.15503386  0.37295896  0.69161025    -0.58000
C442        C  0.27877715  0.33488075  0.75115134     0.75800
C443        C  0.16188674  0.37755142  0.82333702     0.78100
Cd444      Cd  0.21077654  0.39542641  0.74483302     1.37500
O445        O  0.25080778  0.46437486  0.73978573    -0.56800
O446        O  0.20202543  0.37949574  0.82394707    -0.55700
C447        C  0.17518304  0.38283069  0.65687750     0.78100
O448        O  0.14438665  0.38164885  0.78590287    -0.58000
O449        O  0.18554735  0.46715767  0.76078166    -0.56500
O450        O  0.24133061  0.32473730  0.74061549    -0.56500
O451        O  0.21227403  0.39688924  0.66281641    -0.55600
O452        O  0.28671717  0.64662091  0.74679858    -0.56800
C453        C  0.21888573  0.53333789  0.75153478     0.75800
O454        O  0.15379772  0.65201994  0.79988828    -0.58000
C455        C  0.27846759  0.68584501  0.74618672     0.75800
C456        C  0.16023046  0.63539589  0.67010256     0.78100
Cd457      Cd  0.21043830  0.62508669  0.74950657     1.37500
O458        O  0.25093571  0.55546795  0.74193754    -0.56800
O459        O  0.20042053  0.63614882  0.66891230    -0.55700
C460        C  0.17397720  0.64497224  0.83523017     0.78100
O461        O  0.14335794  0.63142168  0.70792968    -0.58000
O462        O  0.18511567  0.55334792  0.76054826    -0.56500
O463        O  0.23961516  0.69632800  0.74618921    -0.56500
O464        O  0.21182877  0.63186315  0.83045612    -0.55600
C465        C  0.17713972  0.63534013  0.91652934    -0.20300
C466        C  0.15367234  0.64780254  0.87965473    -0.08400
C467        C  0.10977376  0.65512324  0.88481391     0.30500
C468        C  0.08932186  0.64577069  0.92491897    -0.20300
C469        C  0.11202424  0.62802915  0.96056666    -0.08400
C470        C  0.15686090  0.62464323  0.95587416     0.30500
F471        F  0.18101972  0.60707302  0.98798729    -0.18900
H472        H  0.21106243  0.62994194  0.91376984     0.18800
H473        H  0.05518779  0.64883534  0.92581758     0.18900
F474        F  0.08585967  0.66774208  0.85002345    -0.18900
C475        C  0.12818617  0.65178160  0.55095263    -0.20300
C476        C  0.09713887  0.61998653  0.54546490    -0.08400
C477        C  0.07931398  0.60332413  0.58482917     0.30500
C478        C  0.09795264  0.61152697  0.62611587    -0.20300
C479        C  0.13453597  0.63630837  0.62926857    -0.08400
C480        C  0.14823619  0.65815112  0.59182387     0.30500
F481        F  0.18205686  0.68443673  0.59431069    -0.18900
H482        H  0.13965763  0.66983010  0.52334335     0.18800
H483        H  0.08599840  0.59536003  0.65496787     0.18900
F484        F  0.04719196  0.57500851  0.58307744    -0.18900
C485        C  0.07986190  0.40231981  0.91075551    -0.20300
C486        C  0.10314888  0.39436926  0.94990817    -0.08400
C487        C  0.13760317  0.36524295  0.94474777     0.30500
C488        C  0.15573144  0.35772154  0.90282830    -0.20300
C489        C  0.13708885  0.37438688  0.86484724    -0.08400
C490        C  0.09671759  0.39296553  0.86872144     0.30500
F491        F  0.07538386  0.40594345  0.83231360    -0.18900
H492        H  0.04990730  0.41929511  0.91231197     0.18800
H493        H  0.18493146  0.33949795  0.90015794     0.18900
F494        F  0.15361085  0.34283017  0.97878235    -0.18900
C495        C  0.15608874  0.39994608  0.53457246    -0.20300
C496        C  0.11149186  0.39442227  0.53148563    -0.08400
C497        C  0.09095781  0.37515373  0.56796145     0.30500
C498        C  0.11276879  0.36891565  0.60775081    -0.20300
C499        C  0.15552546  0.38046173  0.61219776    -0.08400
C500        C  0.17767468  0.39364194  0.57432303     0.30500
F501        F  0.21940290  0.40393838  0.57640623    -0.18900
H502        H  0.17348865  0.41346836  0.50719047     0.18800
H503        H  0.09539966  0.35689963  0.63590966     0.18900
F504        F  0.04966797  0.36337911  0.56667692    -0.18900
C505        C  0.09705734  0.49071623  0.95306202    -0.20300
C506        C  0.10449599  0.46673286  0.99162725    -0.08400
C507        C  0.11607094  0.48677429  0.52750821     0.30500
C508        C  0.11757090  0.53079225  0.52790113    -0.20300
C509        C  0.09969554  0.55403347  0.49342929    -0.08400
C510        C  0.09773257  0.53489236  0.95365084     0.30500
F511        F  0.08407842  0.55479086  0.91676118    -0.18900
H512        H  0.08730889  0.47691186  0.92210879     0.18800
H513        H  0.12908830  0.54596765  0.55775011     0.18900
F514        F  0.12205418  0.46949262  0.56785850    -0.18900
C515        C  0.83021971  0.40137735  0.54518097    -0.20300
C516        C  0.87480041  0.39697736  0.54141136    -0.08400
C517        C  0.89652391  0.37975871  0.57834909     0.30500
C518        C  0.87493736  0.37328534  0.61862861    -0.20300
C519        C  0.83135560  0.38231331  0.62293011    -0.08400
C520        C  0.80882402  0.39392690  0.58484296     0.30500
F521        F  0.76632268  0.40128731  0.58646195    -0.18900
H522        H  0.81207612  0.41427127  0.51807337     0.18800
H523        H  0.89292550  0.36329597  0.64718993     0.18900
F524        F  0.93898290  0.37235620  0.57774258    -0.18900
C525        C  0.88358923  0.41501053  0.87453786    -0.20300
C526        C  0.84789575  0.38885219  0.87083930    -0.08400
C527        C  0.83465435  0.36677549  0.90851978     0.30500
C528        C  0.85416200  0.37382231  0.94964910    -0.20300
C529        C  0.88567061  0.40511024  0.95514835    -0.08400
C530        C  0.90262331  0.42274008  0.91585861     0.30500
F531        F  0.93461583  0.45123582  0.91807930    -0.18900
H532        H  0.89517855  0.43178656  0.84592306     0.18800
H533        H  0.84257746  0.35590280  0.97729445     0.18900
F534        F  0.80152695  0.33961726  0.90624421    -0.18900
C535        C  0.97272504  0.44620631  0.52508796    -0.20300
C536        C  0.94936607  0.41884319  0.00463103    -0.08400
C537        C  0.97182976  0.38299827  0.98752215     0.30500
C538        C  0.01668374  0.38221612  0.98549482    -0.20300
C539        C  0.04140924  0.41663886  0.00118726    -0.08400
C540        C  0.01670002  0.44394231  0.52432568     0.30500
F541        F  0.03709285  0.47216489  0.55059777    -0.18900
H542        H  0.96069223  0.47253544  0.54350708     0.18800
H543        H  0.03209041  0.35449187  0.97121510     0.18900
F544        F  0.95058702  0.34862690  0.97218572    -0.18900
C545        C  0.83610348  0.66536201  0.90959277    -0.20300
C546        C  0.84767757  0.64040279  0.87239515    -0.08400
C547        C  0.88269868  0.61307666  0.87585909     0.30500
C548        C  0.90118293  0.60631027  0.91699735    -0.20300
C549        C  0.88484269  0.62548911  0.95629943    -0.08400
C550        C  0.85574066  0.65943767  0.95083429     0.30500
F551        F  0.84514944  0.68624963  0.98476764    -0.18900
H552        H  0.81083074  0.68878707  0.90706068     0.18800
H553        H  0.92559448  0.58180657  0.91848568     0.18900
F554        F  0.89617149  0.58918608  0.84060342    -0.18900
C555        C  0.89619910  0.63958443  0.58064440    -0.20300
C556        C  0.87249539  0.62584015  0.54328064    -0.08400
C557        C  0.82772995  0.62354422  0.54855283     0.30500
C558        C  0.80845243  0.63096460  0.58963783    -0.20300
C559        C  0.83263035  0.64020065  0.62740272    -0.08400
C560        C  0.87655307  0.64663548  0.62218055     0.30500
F561        F  0.90103811  0.65705796  0.65763723    -0.18900
H562        H  0.93039582  0.64120018  0.57955177     0.18800
H563        H  0.77450083  0.62623541  0.59234020     0.18900
F564        F  0.80272804  0.60938111  0.51491563    -0.18900
C565        C  0.88824914  0.53485319  0.54709014    -0.20300
C566        C  0.88225781  0.55965967  0.00600215    -0.08400
C567        C  0.86069601  0.53613769  0.97273968     0.30500
C568        C  0.86278191  0.49199224  0.97258161    -0.20300
C569        C  0.88453092  0.47024159  0.00643090    -0.08400
C570        C  0.88770623  0.49081135  0.54797859     0.30500
F571        F  0.89869882  0.47177575  0.58634261    -0.18900
H572        H  0.90072493  0.55169921  0.57567072     0.18800
H573        H  0.84761119  0.47554766  0.94534705     0.18900
F574        F  0.83793799  0.55470151  0.94029648    -0.18900
C575        C  0.96654585  0.64156359  0.50233628    -0.20300
C576        C  0.94773491  0.60684397  0.00162606    -0.08400
C577        C  0.97181440  0.56989754  0.99186295     0.30500
C578        C  0.01553610  0.56983364  0.99289564    -0.20300
C579        C  0.03513767  0.60346856  0.49620358    -0.08400
C580        C  0.01159986  0.64173742  0.49970368     0.30500
F581        F  0.03208611  0.67928335  0.50109685    -0.18900
H582        H  0.94968676  0.67139847  0.50481967     0.18800
H583        H  0.02927068  0.53887224  0.99022996     0.18900
F584        F  0.95426427  0.53333133  0.97718646    -0.18900
C585        C  0.60042339  0.11812100  0.87134698    -0.20300
C586        C  0.62169509  0.15684242  0.87061554    -0.08400
C587        C  0.63944238  0.17262908  0.91014320     0.30500
C588        C  0.63237997  0.15220808  0.95032023    -0.20300
C589        C  0.60558595  0.11653545  0.95261746    -0.08400
C590        C  0.59209531  0.09828198  0.91156588     0.30500
F591        F  0.56679091  0.06369399  0.91075192    -0.18900
H592        H  0.58689368  0.10494228  0.84118018     0.18800
H593        H  0.64618592  0.16635685  0.97973375     0.18900
F594        F  0.66231189  0.20880971  0.91032967    -0.18900
C595        C  0.63443816  0.11782655  0.56956020    -0.20300
C596        C  0.60479767  0.13212932  0.53796878    -0.08400
C597        C  0.58717885  0.17303730  0.54513690     0.30500
C598        C  0.59299973  0.19467570  0.58532010    -0.20300
C599        C  0.61719686  0.17696194  0.61924846    -0.08400
C600        C  0.63965428  0.13924732  0.61023177     0.30500
F601        F  0.66534270  0.12206626  0.64123644    -0.18900
H602        H  0.65219868  0.08887278  0.56411502     0.18800
H603        H  0.57664608  0.22454315  0.59058658     0.18900
F604        F  0.56226113  0.19143134  0.51428816    -0.18900
C605        C  0.35093903  0.15722301  0.95212526    -0.20300
C606        C  0.37772697  0.12104354  0.95334687    -0.08400
C607        C  0.39178276  0.10404840  0.91160422     0.30500
C608        C  0.38289772  0.12445748  0.87202391    -0.20300
C609        C  0.36057059  0.16274968  0.87225729    -0.08400
C610        C  0.34332408  0.17826997  0.91238930     0.30500
F611        F  0.31997972  0.21446333  0.91342298    -0.18900
H612        H  0.33706146  0.17095004  0.98197177     0.18800
H613        H  0.39656811  0.11188132  0.84139454     0.18900
F614        F  0.41788625  0.06972083  0.90936773    -0.18900
C615        C  0.40239199  0.17394811  0.54772844    -0.20300
C616        C  0.38095413  0.13543313  0.53995959    -0.08400
C617        C  0.34727090  0.12561625  0.56925032     0.30500
C618        C  0.34203136  0.14835200  0.60929201    -0.20300
C619        C  0.36839849  0.18269334  0.61968181    -0.08400
C620        C  0.39694040  0.19679195  0.58724297     0.30500
F621        F  0.42169538  0.23113648  0.59458014    -0.18900
H622        H  0.42579414  0.18506691  0.52427607     0.18800
H623        H  0.31807905  0.13831197  0.63273104     0.18900
F624        F  0.31998262  0.09370208  0.56009212    -0.18900
C625        C  0.51547933  0.09761080  0.53805004    -0.20300
C626        C  0.53721299  0.10358917  0.99734417    -0.08400
C627        C  0.51300466  0.12424457  0.96424327     0.30500
C628        C  0.46866336  0.12349115  0.96471771    -0.20300
C629        C  0.44491242  0.10299246  0.99805289    -0.08400
C630        C  0.47115620  0.09845087  0.53959888     0.30500
F631        F  0.45376053  0.09871850  0.58064216    -0.18900
H632        H  0.53107596  0.09427412  0.56939027     0.18800
H633        H  0.45361033  0.14292407  0.94025477     0.18900
F634        F  0.53070324  0.15093497  0.93481768    -0.18900
C635        C  0.42044417  0.87502706  0.93105683    -0.20300
C636        C  0.38677763  0.89418544  0.95567650    -0.08400
C637        C  0.34505258  0.88754150  0.93942392     0.30500
C638        C  0.33827770  0.86686192  0.89821801    -0.20300
C639        C  0.37264714  0.84970091  0.87397040    -0.08400
C640        C  0.41357097  0.85360707  0.89114735     0.30500
F641        F  0.44745057  0.83694603  0.86875860    -0.18900
H642        H  0.45268130  0.87473026  0.94285974     0.18800
H643        H  0.30624129  0.86341800  0.88581381     0.18900
F644        F  0.31095333  0.90252723  0.96268399    -0.18900
C645        C  0.38753206  0.82772272  0.58145325    -0.20300
C646        C  0.36258806  0.84471344  0.61610444    -0.08400
C647        C  0.34083855  0.88296724  0.60924540     0.30500
C648        C  0.34813647  0.90596918  0.57054603    -0.23500
C649        C  0.37875597  0.89220458  0.53887625    -0.08400
C650        C  0.39527367  0.85068627  0.54324028     0.30500
F651        F  0.42359910  0.83429837  0.51341125    -0.18900
H652        H  0.40384373  0.79778732  0.58518496     0.18800
H653        H  0.33142943  0.93562142  0.56704416     0.18900
F654        F  0.31383605  0.89901633  0.64060403    -0.18900
C655        C  0.39020615  0.99131050  0.54524885    -0.20300
C656        C  0.37860092  0.96434604  0.00303216    -0.08400
C657        C  0.36361569  0.98744242  0.96627438     0.30500
C658        C  0.36132332  0.03164682  0.96822292    -0.20300
C659        C  0.37913443  0.05533820  0.00377257    -0.08400
C660        C  0.39062385  0.03535008  0.54608993     0.30500
F661        F  0.39607280  0.05404174  0.58626765    -0.18900
H662        H  0.40072700  0.97527709  0.57474097     0.18800
H663        H  0.34779004  0.04653429  0.93969251     0.18900
F664        F  0.35537392  0.96915678  0.92632738    -0.18900
C665        C  0.63192151  0.90635426  0.58120374    -0.20300
C666        C  0.60295950  0.89107561  0.54903020    -0.08400
C667        C  0.58806689  0.84919251  0.55399986     0.30500
C668        C  0.59661507  0.82675125  0.59237967    -0.20300
C669        C  0.61980460  0.84505171  0.62719558    -0.08400
C670        C  0.63899562  0.88438264  0.62057738     0.30500
F671        F  0.66321761  0.90241165  0.65278337    -0.18900
H672        H  0.64726270  0.93652346  0.57766663     0.18800
H673        H  0.58191167  0.79619306  0.59623685     0.18900
F674        F  0.56079273  0.83152077  0.52449635    -0.18900
C675        C  0.64020462  0.86514713  0.90916925    -0.20300
C676        C  0.60595947  0.84738964  0.88585527    -0.08400
C677        C  0.56543519  0.84954751  0.90461135     0.30500
C678        C  0.55856150  0.87089226  0.94445429    -0.20300
C679        C  0.59169364  0.89187927  0.96754505    -0.08400
C680        C  0.63342647  0.88558304  0.95063673     0.30500
F681        F  0.66746869  0.90000280  0.97370357    -0.18900
H682        H  0.67213250  0.86234506  0.89582532     0.18800
H683        H  0.52666095  0.86917877  0.95750948     0.18900
F684        F  0.53182020  0.83146475  0.88382019    -0.18900
C685        C  0.46689432  0.91344419  0.54966911    -0.20300
C686        C  0.44342276  0.92274998  0.00952838    -0.08400
C687        C  0.46861900  0.94540610  0.97924102     0.30500
C688        C  0.51255675  0.94567405  0.98305157    -0.20300
C689        C  0.53340638  0.92321333  0.01682580    -0.08400
C690        C  0.51103881  0.91278382  0.55254359     0.30500
F691        F  0.52812472  0.90092227  0.59167247    -0.18900
H692        H  0.44928540  0.90297577  0.57828226     0.18800
H693        H  0.53076098  0.96037807  0.95696812     0.18900
F694        F  0.45113304  0.96412154  0.94343571    -0.18900
C695        C  0.61866778  0.98228653  0.97642445    -0.20300
C696        C  0.59889229  0.96292997  0.01295907    -0.08400
C697        C  0.58978488  0.99179798  0.54934371     0.30500
C698        C  0.58972701  0.03548897  0.54568873    -0.20300
C699        C  0.60046504  0.05294298  0.00542646    -0.08400
C700        C  0.62194325  0.02633017  0.97407569     0.30500
F701        F  0.64678425  0.04178407  0.94135959    -0.18900
H702        H  0.63011925  0.96443450  0.94804148     0.18800
H703        H  0.58069911  0.05303574  0.57502704     0.18900
F704        F  0.57371490  0.97560817  0.58729645    -0.18900
loop_ 
_geom_bond_atom_site_label_1 
_geom_bond_atom_site_label_2 
_geom_bond_distance 
_geom_bond_site_symmetry_2 
_ccdc_geom_bond_type 
C1          C327   1.570       .  S
C1          C337   1.559       .  S
C1          C344   1.561       .  S
C1          C666   1.556       .  S
C2          C284   1.568       .  S
C2          C304   1.564       .  S
C2          C334   1.560       .  S
C2          C649   1.557       .  S
C3          C264   1.557   1_556  S
C3          C606   1.574       .  S
C3          C629   1.586       .  S
C3          C659   1.586   1_556  S
C4          C237   1.563       .  S
C4          C274   1.581       .  S
C4          C347   1.584       .  S
C4          C596   1.560       .  S
C5          C197   1.553       .  S
C5          C214   1.565       .  S
C5          C224   1.572       .  S
C5          C556   1.556       .  S
C6          C177   1.563       .  S
C6          C184   1.575       .  S
C6          C217   1.576       .  S
C6          C516   1.557       .  S
C7          C134   1.577       .  S
C7          C154   1.595       .  S
C7          C187   1.566       .  S
C7          C496   1.560       .  S
C8          C124   1.565   1_556  S
C8          C157   1.574       .  S
C8          C227   1.575       .  S
C8          C469   1.556       .  S
O9           C12   1.269       .  A
O9          Cd14   2.522       .  S
C10          O19   1.264       .  A
C10          O15   1.267       .  A
C10          C49   1.465       .  S
O11          C17   1.268       .  A
O11         Cd14   2.471       .  S
C12          O20   1.264       .  A
C12          C25   1.475       .  S
C13          O18   1.267       .  A
C13          O16   1.265       .  A
C13         C324   1.478       .  S
Cd14         O21   2.431       .  S
Cd14         O20   2.450       .  S
Cd14         O19   2.434       .  S
Cd14         O15   2.490       .  S
Cd14         O18   2.525       .  S
Cd14         O16   2.433       .  S
C17          O21   1.265       .  A
C17         C317   1.478       .  S
O22          C25   1.269       .  A
O22         Cd27   2.517       .  S
C23          O32   1.264       .  A
C23          O28   1.267       .  A
C23         C103   1.472       .  S
O24          C30   1.268       .  A
O24         Cd27   2.525       .  S
C25          O33   1.265       .  A
C26          O31   1.268       .  A
C26          O29   1.266       .  A
C26         C294   1.487       .  S
Cd27         O34   2.446       .  S
Cd27         O33   2.450       .  S
Cd27         O32   2.454       .  S
Cd27         O28   2.508       .  S
Cd27         O31   2.500       .  S
Cd27         O29   2.458       .  S
C30          O34   1.264       .  A
C30         C287   1.479       .  S
O35          C38   1.266       .  A
O35         Cd40   2.542       .  S
C36          O45   1.263       .  A
C36          O41   1.268       .  A
C36          C75   1.471       .  S
O37          C43   1.270       .  A
O37         Cd40   2.516       .  S
C38          O46   1.260       .  A
C38          C51   1.473       .  S
C39          O44   1.266       .  A
C39          O42   1.264       .  A
C39         C174   1.482       .  S
Cd40         O47   2.432       .  S
Cd40         O46   2.445       .  S
Cd40         O45   2.454       .  S
Cd40         O41   2.507       .  S
Cd40         O44   2.491       .  S
Cd40         O42   2.464       .  S
C43          O47   1.265       .  A
C43         C167   1.489       .  S
O48          C51   1.265       .  A
O48         Cd53   2.538       .  S
C49          O58   1.263       .  A
C49          O54   1.267       .  A
O50          C56   1.264       .  A
O50         Cd53   2.436       .  S
C51          O59   1.261       .  A
C52          O57   1.267       .  A
C52          O55   1.266       .  A
C52         C207   1.486       .  S
Cd53         O60   2.482       .  S
Cd53         O59   2.450       .  S
Cd53         O58   2.432       .  S
Cd53         O54   2.492       .  S
Cd53         O57   2.505       .  S
Cd53         O55   2.435       .  S
C56          O60   1.265       .  A
C56         C194   1.476       .  S
O61          C64   1.269       .  A
O61         Cd66   2.503       .  S
C62          O71   1.261       .  A
C62          O67   1.269       .  A
C62          C77   1.470       .  S
O63          C69   1.266       .  A
O63         Cd66   2.471       .  S
C64          O72   1.264       .  A
C64          C90   1.470       .  S
C65          O70   1.268       .  A
C65          O68   1.265       .  A
C65         C267   1.482       .  S
Cd66         O73   2.474       .  S
Cd66         O72   2.434       .  S
Cd66         O71   2.419       .  S
Cd66         O67   2.531       .  S
Cd66         O70   2.489       .  S
Cd66         O68   2.442       .  S
C69          O73   1.265       .  A
C69         C257   1.481       .  S
O74          C77   1.267       .  A
O74         Cd79   2.529       .  S
C75          O84   1.265       .  A
C75          O80   1.267       .  A
O76          C82   1.266       .  A
O76         Cd79   2.481       .  S
C77          O85   1.262       .  A
C78          O83   1.266       .  A
C78          O81   1.264       .  A
C78         C247   1.481       .  S
Cd79         O86   2.468       .  S
Cd79         O85   2.425       .  S
Cd79         O84   2.456       .  S
Cd79         O80   2.495       .  S
Cd79         O83   2.488       .  S
Cd79         O81   2.448       .  S
C82          O86   1.266       .  A
C82         C234   1.478       .  S
O87          C90   1.267       .  A
O87         Cd92   2.504       .  S
C88          O97   1.267       .  A
C88          O93   1.261       .  A
C88         C101   1.473       .  S
O89          C95   1.266       .  A
O89         Cd92   2.458       .  S
C90          O98   1.265       .  A
C91          O96   1.263       .  A
C91          O94   1.265       .  A
C91         C137   1.474       .  S
Cd92         O99   2.453       .  S
Cd92         O98   2.445       .  S
Cd92         O97   2.537       .  S
Cd92         O93   2.438       .  S
Cd92         O96   2.471       .  S
Cd92         O94   2.461       .  S
C95          O99   1.267       .  A
C95         C147   1.481       .  S
O100        C103   1.269       .  A
O100       Cd105   2.505       .  S
C101        O110   1.268       .  A
C101        O106   1.260       .  A
O102        C108   1.264       .  A
O102       Cd105   2.467       .  S
C103        O111   1.265       .  A
C104        O109   1.264       .  A
C104        O107   1.267       .  A
C104        C127   1.480       .  S
Cd105       O112   2.460       .  S
Cd105       O111   2.446       .  S
Cd105       O110   2.544       .  S
Cd105       O106   2.438       .  S
Cd105       O109   2.462       .  S
Cd105       O107   2.488       .  S
C108        O112   1.266       .  A
C108        C114   1.481       .  S
C113        C114   1.398       .  A
C113        C118   1.392       .  A
C113        H120   1.083       .  S
C114        C115   1.408       .  A
C115        C116   1.403       .  A
C115        F122   1.357       .  S
C116        C117   1.412       .  A
C116        H121   1.079       .  S
C117        C360   1.556       .  S
C117        C118   1.424       .  A
C118        F119   1.359       .  S
C123        C124   1.417       .  A
C123        C128   1.401       .  A
C123        H130   1.078       .  S
C124        C125   1.420       .  A
C125        C126   1.398       .  A
C125        F132   1.357       .  S
C126        C127   1.401       .  A
C126        H131   1.083       .  S
C127        C128   1.402       .  A
C128        F129   1.358       .  S
C133        C134   1.418       .  A
C133        C138   1.397       .  A
C133        H140   1.083       .  S
C134        C135   1.423       .  A
C135        C136   1.398       .  A
C135        F142   1.354       .  S
C136        C137   1.398       .  A
C136        H141   1.084       .  S
C137        C138   1.401       .  A
C138        F139   1.358       .  S
C143        C144   1.420       .  A
C143        C148   1.394       .  A
C143        H150   1.083       .  S
C144        C359   1.559   1_554  S
C144        C145   1.420       .  A
C145        C146   1.400       .  A
C145        F152   1.355       .  S
C146        C147   1.404       .  A
C146        H151   1.083       .  S
C147        C148   1.403       .  A
C148        F149   1.357       .  S
C153        C154   1.417       .  A
C153        C158   1.394       .  A
C153        H160   1.061       .  S
C154        C507   1.438       .  A
C155        C156   1.395       .  A
C155        C506   1.437   1_554  A
C155        F162   1.355       .  S
C156        C157   1.403   1_554  A
C156        H161   1.078       .  S
C157        C510   1.416       .  A
C158        C509   1.414       .  A
C158        F159   1.358       .  S
C163        C164   1.414       .  A
C163        C168   1.392       .  A
C163        H170   1.083       .  S
C164        C358   1.560       .  S
C164        C165   1.422       .  A
C165        C166   1.407       .  A
C165        F172   1.355       .  S
C166        C167   1.405       .  A
C166        H171   1.083       .  S
C167        C168   1.405       .  A
C168        F169   1.357       .  S
C173        C174   1.401       .  A
C173        C178   1.398       .  A
C173        H180   1.083       .  S
C174        C175   1.406       .  A
C175        C176   1.401       .  A
C175        F182   1.357       .  S
C176        C177   1.413       .  A
C176        H181   1.079       .  S
C177        C178   1.422       .  A
C178        F179   1.358       .  S
C183        C188   1.387   1_655  A
C183        C536   1.414       .  A
C183        H190   1.062       .  S
C184        C185   1.423       .  A
C184        C535   1.410       .  A
C185        C186   1.409   1_655  A
C185        F192   1.357       .  S
C186        C187   1.416       .  A
C186        H191   1.082       .  S
C187        C540   1.411       .  A
C188        C539   1.409       .  A
C188        F189   1.352       .  S
C193        C194   1.404       .  A
C193        C198   1.403       .  A
C193        H200   1.087       .  S
C194        C195   1.401       .  A
C195        C196   1.388       .  A
C195        F202   1.357       .  S
C196        C197   1.413       .  A
C196        H201   1.088       .  S
C197        C198   1.420       .  A
C198        F199   1.356       .  S
C203        C204   1.418       .  A
C203        C208   1.406       .  A
C203        H210   1.079       .  S
C204        C357   1.558       .  S
C204        C205   1.420       .  A
C205        C206   1.391       .  A
C205        F212   1.358       .  S
C206        C207   1.399       .  A
C206        H211   1.083       .  S
C207        C208   1.408       .  A
C208        F209   1.358       .  S
C213        C218   1.396       .  A
C213        C566   1.415       .  A
C213        H220   1.081       .  S
C214        C215   1.415       .  A
C214        C565   1.414       .  A
C215        C216   1.397       .  A
C215        F222   1.356       .  S
C216        C217   1.418       .  A
C216        H221   1.079       .  S
C217        C570   1.417       .  A
C218        C569   1.415       .  A
C218        F219   1.358       .  S
C223        C228   1.420   1_655  A
C223        C576   1.419       .  A
C223        H230   1.083       .  S
C224        C225   1.415       .  A
C224        C575   1.419       .  A
C225        C226   1.375   1_655  A
C225        F232   1.353       .  S
C226        C579   1.410       .  A
C226        H231   1.070       .  S
C227        C228   1.419   1_556  A
C227        C578   1.409       .  A
C228        F229   1.357       .  S
C233        C234   1.400       .  A
C233        C238   1.399       .  A
C233        H240   1.084       .  S
C234        C235   1.402       .  A
C235        C236   1.399       .  A
C235        F242   1.357       .  S
C236        C237   1.416       .  A
C236        H241   1.080       .  S
C237        C238   1.425       .  A
C238        F239   1.359       .  S
C243        C244   1.415       .  A
C243        C248   1.400       .  A
C243        H250   1.081       .  S
C244        C356   1.559   1_554  S
C244        C245   1.418       .  A
C245        C246   1.394       .  A
C245        F252   1.356       .  S
C246        C247   1.401       .  A
C246        H251   1.083       .  S
C247        C248   1.405       .  A
C248        F249   1.357       .  S
C253        C254   1.418       .  A
C253        C258   1.401       .  A
C253        H260   1.080       .  S
C254        C355   1.574       .  S
C254        C255   1.426       .  A
C255        C256   1.396       .  A
C255        F262   1.359       .  S
C256        C257   1.399       .  A
C256        H261   1.084       .  S
C257        C258   1.404       .  A
C258        F259   1.357       .  S
C263        C264   1.415       .  A
C263        C268   1.391       .  A
C263        H270   1.082       .  S
C264        C265   1.415       .  A
C265        C266   1.404       .  A
C265        F272   1.357       .  S
C266        C267   1.406       .  A
C266        H271   1.083       .  S
C267        C268   1.404       .  A
C268        F269   1.358       .  S
C273        C278   1.394       .  A
C273        C626   1.409   1_554  A
C273        H280   1.077       .  S
C274        C275   1.422       .  A
C274        C625   1.410       .  A
C275        C276   1.393       .  A
C275        F282   1.356       .  S
C276        C277   1.417       .  A
C276        H281   1.077       .  S
C277        C355   1.584       .  S
C277        C630   1.417       .  A
C278        C629   1.416   1_554  A
C278        F279   1.346       .  S
C283        C284   1.419       .  A
C283        C288   1.389       .  A
C283        H290   1.076       .  S
C284        C285   1.419       .  A
C285        C286   1.411       .  A
C285        F292   1.357       .  S
C286        C287   1.404       .  A
C286        H291   1.083       .  S
C287        C288   1.396       .  A
C288        F289   1.357       .  S
C293        C294   1.401       .  A
C293        C298   1.396       .  A
C293        H300   1.083       .  S
C294        C295   1.407       .  A
C295        C296   1.404       .  A
C295        F302   1.357       .  S
C296        C297   1.414       .  A
C296        H301   1.080       .  S
C297        C354   1.562       .  S
C297        C298   1.421       .  A
C298        F299   1.356       .  S
C303        C308   1.395   1_565  A
C303        C656   1.411       .  A
C303        H310   1.083       .  S
C304        C305   1.416       .  A
C304        C655   1.412       .  A
C305        C306   1.403   1_565  A
C305        F312   1.351       .  S
C306        C307   1.417       .  A
C306        H311   1.077       .  S
C307        C355   1.585       .  S
C307        C660   1.419       .  A
C308        C659   1.419       .  A
C308        F309   1.352       .  S
C313        C314   1.416       .  A
C313        C318   1.401       .  A
C313        H320   1.080       .  S
C314        C353   1.555       .  S
C314        C315   1.419       .  A
C315        C316   1.393       .  A
C315        F322   1.355       .  S
C316        C317   1.400       .  A
C316        H321   1.084       .  S
C317        C318   1.404       .  A
C318        F319   1.357       .  S
C323        C324   1.406       .  A
C323        C328   1.414       .  A
C323        H330   1.083       .  S
C324        C325   1.394       .  A
C325        C326   1.385       .  A
C325        F332   1.357       .  S
C326        C327   1.419       .  A
C326        H331   1.078       .  S
C327        C328   1.420       .  A
C328        F329   1.357       .  S
C333        C338   1.396       .  A
C333        C686   1.415       .  A
C333        H340   1.080       .  S
C334        C335   1.413       .  A
C334        C685   1.413       .  A
C335        C336   1.390       .  A
C335        F342   1.357       .  S
C336        C337   1.414       .  A
C336        H341   1.083       .  S
C337        C690   1.416       .  A
C338        C689   1.414       .  A
C338        F339   1.356       .  S
C343        C344   1.412       .  A
C343        C348   1.405   1_565  A
C343        H350   1.075       .  S
C344        C697   1.414       .  A
C345        C346   1.388   1_565  A
C345        C696   1.414       .  A
C345        F352   1.358       .  S
C346        C699   1.412       .  A
C346        H351   1.078       .  S
C347        C348   1.423       .  A
C347        C698   1.413       .  A
C348        F349   1.355       .  S
C353        C679   1.566   1_554  S
C353        C689   1.559       .  S
C353        C696   1.559       .  S
C354        C636   1.565   1_554  S
C354        C656   1.565       .  S
C354        C686   1.561       .  S
C355        C616   1.554       .  S
C356        C589   1.563       .  S
C356        C626   1.584       .  S
C356        C699   1.581   1_556  S
C357        C549   1.558   1_554  S
C357        C566   1.568       .  S
C357        C576   1.572       .  S
C358        C529   1.566   1_554  S
C358        C536   1.581       .  S
C358        C569   1.577       .  S
C359        C486   1.575       .  S
C359        C506   1.598       .  S
C359        C539   1.571   1_556  S
C360        C476   1.561       .  S
C360        C509   1.568       .  S
C360        C579   1.575       .  S
O361        C364   1.269       .  A
O361       Cd366   2.523       .  S
C362        O371   1.264       .  A
C362        O367   1.267       .  A
C362        C401   1.465       .  S
O363        C369   1.268       .  A
O363       Cd366   2.486       .  S
C364        O372   1.265       .  A
C364        C377   1.477       .  S
C365        O370   1.267       .  A
C365        O368   1.264       .  A
C365        C676   1.472       .  S
Cd366       O373   2.437       .  S
Cd366       O372   2.450       .  S
Cd366       O371   2.440       .  S
Cd366       O367   2.486       .  S
Cd366       O370   2.509       .  S
Cd366       O368   2.419       .  S
C369        O373   1.266       .  A
C369        C669   1.481       .  S
O374        C377   1.270       .  A
O374       Cd379   2.524       .  S
C375        O384   1.263       .  A
C375        O380   1.268       .  A
C375        C455   1.471       .  S
O376        C382   1.268       .  A
O376       Cd379   2.520       .  S
C377        O385   1.265       .  A
C378        O383   1.268       .  A
C378        O381   1.266       .  A
C378        C646   1.484       .  S
Cd379       O386   2.423       .  S
Cd379       O385   2.448       .  S
Cd379       O384   2.448       .  S
Cd379       O380   2.511       .  S
Cd379       O383   2.493       .  S
Cd379       O381   2.447       .  S
C382        O386   1.264       .  A
C382        C639   1.476       .  S
O387        C390   1.263       .  A
O387       Cd392   2.505       .  S
C388        O397   1.264       .  A
C388        O393   1.267       .  A
C388        C427   1.475       .  S
O389        C395   1.268       .  A
O389       Cd392   2.518       .  S
C390        O398   1.263       .  A
C390        C403   1.477       .  S
C391        O396   1.267       .  A
C391        O394   1.266       .  A
C391        C526   1.489       .  S
Cd392       O399   2.441       .  S
Cd392       O398   2.503       .  S
Cd392       O397   2.471       .  S
Cd392       O393   2.519       .  S
Cd392       O396   2.489       .  S
Cd392       O394   2.474       .  S
C395        O399   1.264       .  A
C395        C519   1.488       .  S
O400        C403   1.264       .  A
O400       Cd405   2.511       .  S
C401        O410   1.263       .  A
C401        O406   1.266       .  A
O402        C408   1.266       .  A
O402       Cd405   2.439       .  S
C403        O411   1.263       .  A
C404        O409   1.266       .  A
C404        O407   1.264       .  A
C404        C559   1.485       .  S
Cd405       O412   2.491       .  S
Cd405       O411   2.505       .  S
Cd405       O410   2.443       .  S
Cd405       O406   2.492       .  S
Cd405       O409   2.517       .  S
Cd405       O407   2.438       .  S
C408        O412   1.267       .  A
C408        C546   1.482       .  S
O413        C416   1.268       .  A
O413       Cd418   2.493       .  S
C414        O423   1.262       .  A
C414        O419   1.269       .  A
C414        C429   1.472       .  S
O415        C421   1.267       .  A
O415       Cd418   2.456       .  S
C416        O424   1.263       .  A
C416        C442   1.465       .  S
C417        O422   1.267       .  A
C417        O420   1.264       .  A
C417        C619   1.479       .  S
Cd418       O425   2.468       .  S
Cd418       O424   2.426       .  S
Cd418       O423   2.428       .  S
Cd418       O419   2.527       .  S
Cd418       O422   2.482       .  S
Cd418       O420   2.431       .  S
C421        O425   1.267       .  A
C421        C609   1.476       .  S
O426        C429   1.267       .  A
O426       Cd431   2.539       .  S
C427        O436   1.265       .  A
C427        O432   1.268       .  A
O428        C434   1.265       .  A
O428       Cd431   2.470       .  S
C429        O437   1.261       .  A
C430        O435   1.265       .  A
C430        O433   1.264       .  A
C430        C599   1.481       .  S
Cd431       O438   2.479       .  S
Cd431       O437   2.440       .  S
Cd431       O436   2.459       .  S
Cd431       O432   2.506       .  S
Cd431       O435   2.482       .  S
Cd431       O433   2.448       .  S
C434        O438   1.267       .  A
C434        C586   1.481       .  S
O439        C442   1.267       .  A
O439       Cd444   2.490       .  S
C440        O449   1.262       .  A
C440        O445   1.267       .  A
C440        C453   1.473       .  S
O441        C447   1.265       .  A
O441       Cd444   2.482       .  S
C442        O450   1.265       .  A
C443        O448   1.266       .  A
C443        O446   1.266       .  A
C443        C489   1.475       .  S
Cd444       O451   2.471       .  S
Cd444       O450   2.432       .  S
Cd444       O449   2.441       .  S
Cd444       O445   2.535       .  S
Cd444       O448   2.468       .  S
Cd444       O446   2.458       .  S
C447        O451   1.265       .  A
C447        C499   1.485       .  S
O452        C455   1.268       .  A
O452       Cd457   2.502       .  S
C453        O462   1.260       .  A
C453        O458   1.267       .  A
O454        C460   1.265       .  A
O454       Cd457   2.473       .  S
C455        O463   1.265       .  A
C456        O461   1.263       .  A
C456        O459   1.266       .  A
C456        C479   1.476       .  S
Cd457       O464   2.444       .  S
Cd457       O463   2.445       .  S
Cd457       O462   2.441       .  S
Cd457       O458   2.546       .  S
Cd457       O461   2.470       .  S
Cd457       O459   2.479       .  S
C460        O464   1.266       .  A
C460        C466   1.480       .  S
C465        C466   1.398       .  A
C465        C470   1.391       .  A
C465        H472   1.083       .  S
C466        C467   1.407       .  A
C467        C468   1.403       .  A
C467        F474   1.358       .  S
C468        C469   1.415       .  A
C468        H473   1.079       .  S
C469        C470   1.421       .  A
C470        F471   1.358       .  S
C475        C476   1.416       .  A
C475        C480   1.398       .  A
C475        H482   1.079       .  S
C476        C477   1.420       .  A
C477        C478   1.398       .  A
C477        F484   1.357       .  S
C478        C479   1.401       .  A
C478        H483   1.083       .  S
C479        C480   1.401       .  A
C480        F481   1.357       .  S
C485        C486   1.417       .  A
C485        C490   1.396       .  A
C485        H492   1.083       .  S
C486        C487   1.425       .  A
C487        C488   1.398       .  A
C487        F494   1.354       .  S
C488        C489   1.398       .  A
C488        H493   1.084       .  S
C489        C490   1.401       .  A
C490        F491   1.357       .  S
C495        C496   1.419       .  A
C495        C500   1.396       .  A
C495        H502   1.083       .  S
C496        C497   1.420       .  A
C497        C498   1.400       .  A
C497        F504   1.355       .  S
C498        C499   1.404       .  A
C498        H503   1.083       .  S
C499        C500   1.405       .  A
C500        F501   1.357       .  S
C505        C506   1.418       .  A
C505        C510   1.399       .  A
C505        H512   1.070       .  S
C507        C508   1.395       .  A
C507        F514   1.355       .  S
C508        C509   1.401       .  A
C508        H513   1.077       .  S
C510        F511   1.357       .  S
C515        C516   1.413       .  A
C515        C520   1.392       .  A
C515        H522   1.083       .  S
C516        C517   1.424       .  A
C517        C518   1.406       .  A
C517        F524   1.356       .  S
C518        C519   1.405       .  A
C518        H523   1.083       .  S
C519        C520   1.405       .  A
C520        F521   1.357       .  S
C525        C526   1.404       .  A
C525        C530   1.402       .  A
C525        H532   1.083       .  S
C526        C527   1.406       .  A
C527        C528   1.400       .  A
C527        F534   1.357       .  S
C528        C529   1.415       .  A
C528        H533   1.079       .  S
C529        C530   1.420       .  A
C530        F531   1.358       .  S
C535        C540   1.386   1_655  A
C535        H542   1.060       .  S
C536        C537   1.421   1_554  A
C537        C538   1.413   1_655  A
C537        F544   1.357       .  S
C538        C539   1.419   1_556  A
C538        H543   1.082       .  S
C540        F541   1.351       .  S
C545        C546   1.405       .  A
C545        C550   1.405       .  A
C545        H552   1.088       .  S
C546        C547   1.403       .  A
C547        C548   1.391       .  A
C547        F554   1.357       .  S
C548        C549   1.413       .  A
C548        H553   1.090       .  S
C549        C550   1.421       .  A
C550        F551   1.356       .  S
C555        C556   1.417       .  A
C555        C560   1.406       .  A
C555        H562   1.078       .  S
C556        C557   1.420       .  A
C557        C558   1.391       .  A
C557        F564   1.358       .  S
C558        C559   1.399       .  A
C558        H563   1.083       .  S
C559        C560   1.407       .  A
C560        F561   1.357       .  S
C565        C570   1.396       .  A
C565        H572   1.081       .  S
C566        C567   1.416   1_554  A
C567        C568   1.399       .  A
C567        F574   1.355       .  S
C568        C569   1.417   1_556  A
C568        H573   1.079       .  S
C570        F571   1.358       .  S
C575        C580   1.420   1_655  A
C575        H582   1.082       .  S
C576        C577   1.416   1_554  A
C577        C578   1.377   1_655  A
C577        F584   1.355       .  S
C578        H583   1.071       .  S
C579        C580   1.419       .  A
C580        F581   1.357       .  S
C585        C586   1.402       .  A
C585        C590   1.398       .  A
C585        H592   1.083       .  S
C586        C587   1.403       .  A
C587        C588   1.399       .  A
C587        F594   1.357       .  S
C588        C589   1.417       .  A
C588        H593   1.080       .  S
C589        C590   1.423       .  A
C590        F591   1.359       .  S
C595        C596   1.414       .  A
C595        C600   1.400       .  A
C595        H602   1.081       .  S
C596        C597   1.419       .  A
C597        C598   1.393       .  A
C597        F604   1.356       .  S
C598        C599   1.401       .  A
C598        H603   1.083       .  S
C599        C600   1.406       .  A
C600        F601   1.357       .  S
C605        C606   1.420       .  A
C605        C610   1.401       .  A
C605        H612   1.080       .  S
C606        C607   1.426       .  A
C607        C608   1.395       .  A
C607        F614   1.359       .  S
C608        C609   1.398       .  A
C608        H613   1.084       .  S
C609        C610   1.402       .  A
C610        F611   1.358       .  S
C615        C616   1.415       .  A
C615        C620   1.391       .  A
C615        H622   1.083       .  S
C616        C617   1.415       .  A
C617        C618   1.402       .  A
C617        F624   1.356       .  S
C618        C619   1.405       .  A
C618        H623   1.083       .  S
C619        C620   1.404       .  A
C620        F621   1.358       .  S
C625        C630   1.396       .  A
C625        H632   1.073       .  S
C626        C627   1.424       .  A
C627        C628   1.396       .  A
C627        F634   1.356       .  S
C628        C629   1.418       .  A
C628        H633   1.078       .  S
C630        F631   1.349       .  S
C635        C636   1.417       .  A
C635        C640   1.388       .  A
C635        H642   1.077       .  S
C636        C637   1.420       .  A
C637        C638   1.411       .  A
C637        F644   1.357       .  S
C638        C639   1.403       .  A
C638        H643   1.083       .  S
C639        C640   1.396       .  A
C640        F641   1.358       .  S
C645        C646   1.400       .  A
C645        C650   1.393       .  A
C645        H652   1.083       .  S
C646        C647   1.407       .  A
C647        C648   1.404       .  A
C647        F654   1.357       .  S
C648        C649   1.414       .  A
C648        H653   1.081       .  S
C649        C650   1.420       .  A
C650        F651   1.357       .  S
C655        C660   1.395   1_565  A
C655        H662   1.083       .  S
C656        C657   1.419   1_554  A
C657        C658   1.402   1_565  A
C657        F664   1.353       .  S
C658        C659   1.417   1_556  A
C658        H663   1.076       .  S
C660        F661   1.350       .  S
C665        C666   1.415       .  A
C665        C670   1.403       .  A
C665        H672   1.080       .  S
C666        C667   1.420       .  A
C667        C668   1.394       .  A
C667        F674   1.355       .  S
C668        C669   1.400       .  A
C668        H673   1.083       .  S
C669        C670   1.405       .  A
C670        F671   1.357       .  S
C675        C676   1.405       .  A
C675        C680   1.411       .  A
C675        H682   1.083       .  S
C676        C677   1.393       .  A
C677        C678   1.382       .  A
C677        F684   1.357       .  S
C678        C679   1.419       .  A
C678        H683   1.079       .  S
C679        C680   1.418       .  A
C680        F681   1.357       .  S
C685        C690   1.393       .  A
C685        H692   1.080       .  S
C686        C687   1.414   1_554  A
C687        C688   1.389       .  A
C687        F694   1.357       .  S
C688        C689   1.413   1_556  A
C688        H693   1.083       .  S
C690        F691   1.356       .  S
C695        C696   1.412   1_556  A
C695        C700   1.403   1_565  A
C695        H702   1.076       .  S
C697        C698   1.390   1_565  A
C697        F704   1.357       .  S
C698        H703   1.071       .  S
C699        C700   1.420   1_554  A
C700        F701   1.355       .  S
