geometry optimzed in LAMMPS
_audit_creation_date              2020-11-30 
_audit_creation_method            'lammps2cif' 
_symmetry_space_group_name_H-M    'P1' 
_symmetry_Int_Tables_number       1 
_symmetry_cell_setting            triclinic 
loop_ 
_symmetry_equiv_pos_as_xyz 
  x,y,z 
_cell_length_a                    53.17329153 
_cell_length_b                    53.332781342636814 
_cell_length_c                    27.192120414093107 
_cell_angle_alpha                 89.27772494321188 
_cell_angle_beta                  90.11767620507418 
_cell_angle_gamma                 89.98510314351414 
loop_ 
_atom_site_label 
_atom_site_type_symbol 
_atom_site_fract_x 
_atom_site_fract_y 
_atom_site_fract_z 
_atom_site_charge 
Zr1        Zr  0.39864920  0.66593922  0.20107267     2.17500
O2          O  0.40071759  0.68774792  0.27925832    -0.51000
O3          O  0.37447702  0.69647188  0.15143590    -0.74200
O4          O  0.42409277  0.70352842  0.19263547    -0.81000
O5          O  0.33806763  0.63034708  0.22523550    -0.82700
O6          O  0.45766800  0.69291361  0.14592051    -0.78300
O7          O  0.35779035  0.66762285  0.23815840    -0.90000
O8          O  0.37274402  0.68124536  0.07370246    -0.75900
O9          O  0.41777319  0.66526872  0.12253334    -0.85400
O10         O  0.37166574  0.64217036  0.14958809    -0.85100
O11         O  0.43834689  0.64542936  0.21762773    -0.71900
O12         O  0.39632615  0.62495564  0.24004465    -0.84000
Zr13       Zr  0.42720351  0.58100028  0.12081582     2.26400
Zr14       Zr  0.45738540  0.64617354  0.13811136     2.06300
Zr15       Zr  0.36827328  0.60209792  0.18832457     2.10000
Zr16       Zr  0.39130359  0.64055404  0.07166203     1.78800
O17         O  0.35698758  0.58226278  0.26633961    -0.92800
O18         O  0.41486192  0.66218241  0.00712759    -0.40600
O19         O  0.38681083  0.59981682  0.10793970    -0.77200
O20         O  0.43111736  0.62194056  0.08388633    -0.95900
O21         O  0.45552214  0.60384440  0.17134465    -0.89200
O22         O  0.40739106  0.58093162  0.19871087    -0.92100
C23         C  0.36800578  0.69776732  0.10579992     1.01700
C24         C  0.33865476  0.65315652  0.23948558     1.14600
C25         C  0.44394510  0.70924065  0.16841876     1.05400
O26         O  0.48387438  0.66770665  0.07812685    -0.94200
O27         O  0.48236829  0.62178181  0.08189749    -0.90000
O28         O  0.46585936  0.58240464  0.07572869    -0.83100
C29         C  0.48185230  0.59948833  0.06498754     1.12000
O30         O  0.44664916  0.62028660  0.32866657    -0.96200
Zr31       Zr  0.43583833  0.60231965  0.24937165     1.88900
O32         O  0.44476285  0.54501721  0.16420865    -0.72900
O33         O  0.49306918  0.64747630  0.19425255    -0.52100
O34         O  0.48110563  0.60284543  0.26326073    -0.96800
O35         O  0.41360805  0.58506676  0.32042359    -0.54000
O36         O  0.44536668  0.55576476  0.24472214    -0.73400
C37         C  0.44748149  0.53938742  0.20980908     0.99000
O38         O  0.42922370  0.55920672  0.04258602    -0.62200
O39         O  0.32746648  0.59550900  0.14956745    -0.57000
O40         O  0.39576475  0.54863236  0.11961327    -0.93700
O41         O  0.36109941  0.55935088  0.16381977    -0.92100
O42         O  0.34892527  0.63620888  0.03853769    -0.92500
O43         O  0.38750433  0.61879164  0.99381958    -0.91200
C44         C  0.37400729  0.54428672  0.13777631     1.17800
H45         H  0.35532787  0.64981891  0.14584446     0.33800
H46         H  0.43830949  0.62087299  0.05145493     0.44600
H47         H  0.40395154  0.56428209  0.21131150     0.38100
H48         H  0.44807209  0.65550336  0.23999208     0.34600
H49         H  0.40181309  0.66992952  0.98577179     0.26400
H50         H  0.50770498  0.64294584  0.17375007     0.32300
H51         H  0.48602888  0.58497586  0.26547754     0.38300
H52         H  0.33763254  0.64298901  0.06401070     0.32700
H53         H  0.31613558  0.59060325  0.17689648     0.31600
H54         H  0.36198662  0.56447031  0.26309966     0.33300
H55         H  0.40602592  0.56930262  0.30864173     0.32200
H56         H  0.38996754  0.60086814  0.00242384     0.36200
H57         H  0.43296008  0.54150841  0.05142776     0.29000
H58         H  0.39456085  0.70494102  0.27207681     0.33200
H59         H  0.45580440  0.60694073  0.34699031     0.36100
H60         H  0.32168331  0.61243488  0.13929100     0.28700
H61         H  0.41174597  0.55897310  0.03006988     0.41500
H62         H  0.47290359  0.67028990  0.04899418     0.31600
H63         H  0.42290116  0.67652032  0.02370104     0.39200
H64         H  0.39910799  0.59644452  0.32528678     0.31100
H65         H  0.49543647  0.66550680  0.20115865     0.31100
H66         H  0.41888984  0.68977431  0.28627190     0.31400
Zr67       Zr  0.39997984  0.83301659  0.18569641     2.17500
O68         O  0.38793956  0.81842245  0.10426855    -0.51000
O69         O  0.37874284  0.80158208  0.23891070    -0.74200
O70         O  0.42271327  0.79397679  0.16724311    -0.81000
O71         O  0.34246661  0.86888114  0.22236155    -0.82700
O72         O  0.46369152  0.80083256  0.18665342    -0.78300
O73         O  0.35532289  0.83618591  0.17587181    -0.90000
O74         O  0.39754469  0.80292122  0.31398814    -0.75900
O75         O  0.43502414  0.82339050  0.23726068    -0.85400
O76         O  0.38659766  0.84829832  0.26388612    -0.85100
O77         O  0.43415844  0.85711699  0.15000053    -0.71900
O78         O  0.39585136  0.87654064  0.17589166    -0.84000
Zr79       Zr  0.45017584  0.90710296  0.26920929     2.26400
Zr80       Zr  0.46934371  0.84662430  0.20227461     2.06300
Zr81       Zr  0.37994967  0.89141008  0.24713319     2.10000
Zr82       Zr  0.42315468  0.84020668  0.31329345     1.78800
O83         O  0.36143152  0.92575890  0.19971217    -0.92800
O84         O  0.45180850  0.80554389  0.33128659    -0.40600
O85         O  0.42020228  0.87541910  0.25910302    -0.77200
O86         O  0.45931223  0.86279266  0.28442209    -0.95900
O87         O  0.46343672  0.89199022  0.19188579    -0.89200
O88         O  0.41374075  0.91811701  0.22213587    -0.92100
C89         C  0.38118432  0.79434116  0.28412739     1.01700
C90         C  0.33841937  0.84993606  0.19508031     1.14600
C91         C  0.44549381  0.78627819  0.17325492     1.05400
O92         O  0.50871447  0.82374998  0.19293683    -0.94200
O93         O  0.50453066  0.86041676  0.25178764    -0.90000
O94         O  0.49097560  0.89836201  0.23596398    -0.83100
C95         C  0.50526196  0.88377576  0.26002666     1.12000
O96         O  0.42058832  0.89447466  0.05672200    -0.96200
Zr97       Zr  0.42734168  0.90276044  0.14388904     1.88900
O98         O  0.45189813  0.95081067  0.23852778    -0.72900
O99         O  0.48535846  0.85639263  0.12038468    -0.52100
O100        O  0.46612021  0.90703545  0.09635001    -0.96800
O101        O  0.39454110  0.92651252  0.10131396    -0.54000
O102        O  0.43974182  0.94826955  0.15890623    -0.73400
C103        C  0.44769272  0.96117565  0.19629906     0.99000
O104        O  0.47278958  0.92985404  0.33279150    -0.62200
O105        O  0.35145620  0.91114469  0.30553686    -0.57000
O106        O  0.42945645  0.90398729  0.34793127    -0.93700
O107        O  0.38830193  0.89491894  0.33396842    -0.92100
O108        O  0.39466672  0.84716448  0.38191133    -0.92500
O109        O  0.44040146  0.85602791  0.39003075    -0.91200
C110        C  0.40708132  0.89911573  0.36211365     1.17800
H111        H  0.37134843  0.84137157  0.27761694     0.33800
H112        H  0.47190504  0.86027894  0.30970621     0.44600
H113        H  0.40847080  0.93545846  0.22307329     0.38100
H114        H  0.43715075  0.85084913  0.11752263     0.34600
H115        H  0.44662960  0.79929040  0.36412418     0.26400
H116        H  0.50219801  0.86375295  0.12609238     0.32300
H117        H  0.47276635  0.92388308  0.10394212     0.38300
H118        H  0.37779791  0.84266685  0.36933530     0.32700
H119        H  0.35594266  0.92916283  0.30513980     0.31600
H120        H  0.34768216  0.91793236  0.18070143     0.33300
H121        H  0.39149354  0.94122746  0.12234720     0.32200
H122        H  0.44530607  0.84088390  0.40917997     0.36200
H123        H  0.46145693  0.94373539  0.34209049     0.29000
H124        H  0.38158328  0.80113659  0.10967155     0.33200
H125        H  0.42767754  0.90910051  0.03868248     0.36100
H126        H  0.33467307  0.91057827  0.28970523     0.28700
H127        H  0.47331045  0.91864150  0.36206585     0.41500
H128        H  0.50988383  0.81277139  0.22247662     0.31600
H129        H  0.44695620  0.79196476  0.30860177     0.39200
H130        H  0.37921182  0.91614659  0.10482993     0.31100
H131        H  0.48874893  0.83990688  0.10544158     0.31100
H132        H  0.40398292  0.81625626  0.08639227     0.31400
Zr133      Zr  0.99964395  0.82584376  0.76241985     2.17500
O134        O  0.97904464  0.80591341  0.83274569    -0.51000
O135        O  0.03766669  0.80006023  0.75525529    -0.74200
O136        O  0.98279430  0.78495374  0.73976387    -0.81000
O137        O  0.03094341  0.87657518  0.83703673    -0.82700
O138        O  0.96357031  0.79154369  0.66597479    -0.78300
O139        O  0.01845114  0.83570155  0.84085288    -0.90000
O140        O  0.03094115  0.80057886  0.67606073    -0.75900
O141        O  0.99835875  0.82058826  0.67504679    -0.85400
O142        O  0.03603655  0.84748053  0.72992146    -0.85100
O143        O  0.96022420  0.84489053  0.73658780    -0.71900
O144        O  0.99415686  0.86942176  0.78260009    -0.84000
Zr145      Zr  0.99187722  0.90436325  0.63899310     2.26400
Zr146      Zr  0.95970321  0.83834628  0.64953344     2.06300
Zr147      Zr  0.03090987  0.89000809  0.75231713     2.10000
Zr148      Zr  0.03371969  0.84227376  0.64255564     1.78800
O149        O  0.03200878  0.92926821  0.79712394    -0.92800
O150        O  0.04991475  0.81438335  0.57961671    -0.40600
O151        O  0.02980058  0.88470403  0.66541854    -0.77200
O152        O  0.99524439  0.86056059  0.61486575    -0.95900
O153        O  0.95531435  0.88262745  0.66774935    -0.89200
O154        O  0.99359176  0.91014931  0.72525870    -0.92100
C155        C  0.04545281  0.79578859  0.71182209     1.01700
C156        C  0.02762702  0.85566981  0.85953413     1.14600
C157        C  0.97189675  0.77677431  0.70097538     1.05400
O158        O  0.94064267  0.81296827  0.58563094    -0.94200
O159        O  0.94988009  0.85752155  0.56931560    -0.90000
O160        O  0.96856536  0.89601956  0.56508244    -0.83100
C161        C  0.95525124  0.87833562  0.54732538     1.12000
O162        O  0.92656505  0.87237498  0.81260915    -0.96200
Zr163      Zr  0.95642774  0.88979891  0.75357097     1.88900
O164        O  0.97134496  0.94388276  0.66582857    -0.72900
O165        O  0.91643489  0.83851563  0.67880361    -0.52100
O166        O  0.91435601  0.89462922  0.71925979    -0.96800
O167        O  0.95743785  0.90756578  0.83568300    -0.54000
O168        O  0.95159773  0.93593851  0.73828737    -0.73400
C169        C  0.95885392  0.95123741  0.70374820     0.99000
O170        O  0.99511163  0.93204733  0.56711468    -0.62200
O171        O  0.07495408  0.88293196  0.77400798    -0.57000
O172        O  0.03367248  0.92315331  0.63288109    -0.93700
O173        O  0.05557743  0.91949383  0.70453756    -0.92100
O174        O  0.07766823  0.85156434  0.66012465    -0.92500
O175        O  0.04096976  0.85503589  0.55736344    -0.91200
C176        C  0.05291602  0.92738304  0.66023786     1.17800
H177        H  0.05191333  0.84183110  0.74345841     0.33800
H178        H  0.99571870  0.85883833  0.57974186     0.44600
H179        H  0.99571140  0.92723632  0.73530462     0.38100
H180        H  0.94669088  0.83589438  0.75190151     0.34600
H181        H  0.06700833  0.80963163  0.59066520     0.26400
H182        H  0.90701857  0.84780628  0.65295272     0.32300
H183        H  0.90747479  0.90982454  0.73487665     0.38300
H184        H  0.07819787  0.86981875  0.66626424     0.32700
H185        H  0.07979394  0.89787104  0.79302653     0.31600
H186        H  0.01825979  0.92776210  0.82146691     0.33300
H187        H  0.96824641  0.92260108  0.83231376     0.32200
H188        H  0.04326787  0.87344555  0.55871443     0.36200
H189        H  0.00003361  0.94860913  0.58004149     0.29000
H190        H  0.98661711  0.78898334  0.83551172     0.33200
H191        H  0.93589564  0.85879758  0.82990081     0.36100
H192        H  0.07505621  0.86900340  0.79847768     0.28700
H193        H  0.01004496  0.92617733  0.54877785     0.41500
H194        H  0.95501467  0.80614642  0.56691302     0.31600
H195        H  0.03992727  0.79877601  0.58257507     0.39200
H196        H  0.96763922  0.89563932  0.85553484     0.31100
H197        H  0.91079968  0.82091909  0.67561067     0.31100
H198        H  0.96150994  0.80298924  0.82196936     0.31400
Zr199      Zr  0.00701914  0.65771273  0.60773584     2.17500
O200        O  0.98155327  0.68018909  0.54680980    -0.51000
O201        O  0.03653291  0.68955504  0.64204976    -0.74200
O202        O  0.98603787  0.69396394  0.64165592    -0.81000
O203        O  0.03792686  0.62299394  0.50349632    -0.82700
O204        O  0.97878222  0.68249689  0.72100857    -0.78300
O205        O  0.02468383  0.66163602  0.52729775    -0.90000
O206        O  0.07265846  0.66869279  0.65551320    -0.75900
O207        O  0.02086099  0.65463403  0.69022489    -0.85400
O208        O  0.04497914  0.63368057  0.60487879    -0.85100
O209        O  0.97205081  0.63641274  0.64646081    -0.71900
O210        O  0.99568220  0.61726745  0.57415244    -0.84000
Zr211      Zr  0.01334471  0.57032102  0.69750455     2.26400
Zr212      Zr  0.98602605  0.63557875  0.72998193     2.06300
Zr213      Zr  0.03402796  0.59353853  0.57214643     2.10000
Zr214      Zr  0.05813856  0.62971297  0.68840726     1.78800
O215        O  0.01675945  0.56378208  0.51387259    -0.92800
O216        O  0.06884268  0.65291041  0.76225246    -0.40600
O217        O  0.04727052  0.59048988  0.65575867    -0.77200
O218        O  0.02395499  0.61067196  0.73133950    -0.95900
O219        O  0.97545239  0.59413897  0.70009884    -0.89200
O220        O  0.00086481  0.57149190  0.61378471    -0.92100
C221        C  0.05968095  0.68859960  0.65644816     1.01700
C222        C  0.03436849  0.64653399  0.49657558     1.14600
C223        C  0.97929725  0.69916296  0.68551577     1.05400
O224        O  0.99384470  0.65506946  0.80898756    -0.94200
O225        O  0.98452833  0.60690491  0.80068502    -0.90000
O226        O  0.00321678  0.56957977  0.78214590    -0.83100
C227        C  0.99205842  0.58449617  0.81096609     1.12000
O228        O  0.93010537  0.61583836  0.56964933    -0.96200
Zr229      Zr  0.96272454  0.59416140  0.61668510     1.88900
O230        O  0.98390331  0.53500950  0.69007838    -0.72900
O231        O  0.94097303  0.63888719  0.74375058    -0.52100
O232        O  0.92284355  0.59378137  0.66055451    -0.96800
O233        O  0.95458251  0.57737851  0.53525925    -0.54000
O234        O  0.95443928  0.54807566  0.63509451    -0.73400
C235        C  0.96455070  0.53074170  0.66297719     0.99000
O236        O  0.03911485  0.54802677  0.75715338    -0.62200
O237        O  0.07125212  0.58510607  0.52270305    -0.57000
O238        O  0.03744922  0.53981327  0.65232367    -0.93700
O239        O  0.06391183  0.56317709  0.60729821    -0.92100
O240        O  0.09875725  0.62032330  0.65176159    -0.92500
O241        O  0.08606740  0.60616203  0.74317578    -0.91200
C242        C  0.05933169  0.54434934  0.63567212     1.17800
H243        H  0.05798453  0.64166746  0.58543541     0.33800
H244        H  0.02964919  0.60864421  0.76487011     0.44600
H245        H  0.99868425  0.55494732  0.60052254     0.38100
H246        H  0.95719864  0.64667495  0.64363361     0.34600
H247        H  0.08486246  0.66150547  0.75420457     0.26400
H248        H  0.93705174  0.62458806  0.76604201     0.32300
H249        H  0.91980311  0.61150534  0.66919284     0.38300
H250        H  0.09472764  0.60960692  0.62333021     0.32700
H251        H  0.06504917  0.58283579  0.48870618     0.31600
H252        H  0.01180987  0.57418093  0.48502875     0.33300
H253        H  0.96080880  0.55989496  0.53680531     0.32200
H254        H  0.07605594  0.60273716  0.77316252     0.36200
H255        H  0.03950309  0.53081327  0.74436342     0.29000
H256        H  0.98708236  0.69790164  0.54792218     0.33200
H257        H  0.93869218  0.63073226  0.55548468     0.36100
H258        H  0.08079997  0.60105526  0.52171475     0.28700
H259        H  0.05627882  0.55471673  0.75194450     0.41500
H260        H  0.01179149  0.65997213  0.80769797     0.31600
H261        H  0.05626604  0.66655043  0.76354531     0.39200
H262        H  0.96661502  0.58622484  0.51336553     0.31100
H263        H  0.93899997  0.65388612  0.76441753     0.31100
H264        H  0.96422547  0.68017768  0.56014476     0.31400
Zr265      Zr  0.17217099  0.78578198  0.86459617     2.17500
O266        O  0.17085387  0.82429630  0.81551130    -0.51000
O267        O  0.14051576  0.76234879  0.82064522    -0.74200
O268        O  0.18951529  0.77632273  0.78339906    -0.81000
O269        O  0.12980724  0.80911324  0.96774246    -0.82700
O270        O  0.22527819  0.75322623  0.79440471    -0.78300
O271        O  0.13604948  0.81214423  0.88485949    -0.90000
O272        O  0.14153203  0.72258809  0.85201787    -0.75900
O273        O  0.19149833  0.74566394  0.86438658    -0.85400
O274        O  0.15118264  0.76131714  0.92629648    -0.85100
O275        O  0.21630041  0.79227373  0.87963394    -0.71900
O276        O  0.17841455  0.80643189  0.94131519    -0.84000
Zr277      Zr  0.22049763  0.74895122  0.01925585     2.26400
Zr278      Zr  0.23510195  0.75126601  0.88243806     2.06300
Zr279      Zr  0.15897022  0.78070145  0.00371169     2.10000
Zr280      Zr  0.17016799  0.72108376  0.92374979     1.78800
O281        O  0.14210783  0.81401301  0.05459913    -0.92800
O282        O  0.18469194  0.68783436  0.87013865    -0.40600
O283        O  0.17705503  0.73998260  0.00312146    -0.77200
O284        O  0.21420599  0.72622876  0.94390775    -0.95900
O285        O  0.24081368  0.77323346  0.95702730    -0.89200
O286        O  0.20174621  0.78923088  0.01888475    -0.92100
C287        C  0.13349961  0.73937821  0.82119650     1.01700
C288        C  0.12462557  0.81761930  0.92505051     1.14600
C289        C  0.20814655  0.76339172  0.76719693     1.05400
O290        O  0.24633819  0.70859702  0.86018977    -0.94200
O291        O  0.27430142  0.74575741  0.93081245    -0.90000
O292        O  0.26296487  0.73535366  0.00917070    -0.83100
C293        C  0.27931150  0.73917706  0.97564852     1.12000
O294        O  0.22165072  0.84884999  0.89934982    -0.96200
Zr295      Zr  0.22195043  0.81326506  0.95630517     1.88900
O296        O  0.24631749  0.77670395  0.06823111    -0.72900
O297        O  0.26837846  0.76856433  0.83075017    -0.52100
O298        O  0.26461355  0.82582215  0.93485405    -0.96800
O299        O  0.20464497  0.84985997  0.99702998    -0.54000
O300        O  0.24688589  0.81511578  0.03048185    -0.73400
C301        C  0.25264425  0.79987209  0.06545812     0.99000
O302        O  0.22616213  0.70914654  0.06281457    -0.62200
O303        O  0.12248729  0.75486948  0.02317397    -0.57000
O304        O  0.20340446  0.75363507  0.10139217    -0.93700
O305        O  0.16710733  0.77565818  0.09182769    -0.92100
O306        O  0.12955951  0.70649077  0.95412230    -0.92500
O307        O  0.17338504  0.68153396  0.96911227    -0.91200
C308        C  0.18420815  0.76518887  0.11838985     1.17800
H309        H  0.13335314  0.76046929  0.91991848     0.33800
H310        H  0.22212970  0.70996729  0.94667586     0.44600
H311        H  0.20319876  0.79769922  0.04992403     0.38100
H312        H  0.22358463  0.80206588  0.85319021     0.34600
H313        H  0.17037230  0.67601353  0.86817838     0.26400
H314        H  0.27273179  0.78474408  0.84595752     0.32300
H315        H  0.27282521  0.81025417  0.92361890     0.38300
H316        H  0.11720203  0.71918081  0.94267295     0.32700
H317        H  0.12751440  0.74509513  0.05281105     0.31600
H318        H  0.12794853  0.80625732  0.07281261     0.33300
H319        H  0.20309600  0.84478063  0.03207452     0.32200
H320        H  0.17362857  0.68638590  0.00415500     0.36200
H321        H  0.20935206  0.70508920  0.07630756     0.29000
H322        H  0.16184514  0.81964771  0.78500140     0.33200
H323        H  0.20396987  0.85016723  0.88808990     0.36100
H324        H  0.10967723  0.76679485  0.03509929     0.28700
H325        H  0.22871751  0.69669370  0.03658401     0.41500
H326        H  0.26286800  0.70554387  0.87596247     0.31600
H327        H  0.18559832  0.69562991  0.83694249     0.39200
H328        H  0.18707394  0.85110842  0.98518627     0.31100
H329        H  0.28317872  0.75769801  0.83702070     0.31100
H330        H  0.18842547  0.82713150  0.80503307     0.31400
Zr331      Zr  0.16749736  0.74406531  0.51729816     2.17500
O332        O  0.15659120  0.70618308  0.56353991    -0.51000
O333        O  0.14164019  0.77138707  0.56409868    -0.74200
O334        O  0.18647822  0.74625148  0.59942880    -0.81000
O335        O  0.12277068  0.73230458  0.40940200    -0.82700
O336        O  0.22699839  0.75984011  0.59172415    -0.78300
O337        O  0.12791787  0.72452738  0.49145602    -0.90000
O338        O  0.15408127  0.81131844  0.54639823    -0.75900
O339        O  0.19571548  0.77830016  0.52485643    -0.85400
O340        O  0.15232890  0.77619276  0.46253978    -0.85100
O341        O  0.20887904  0.72839419  0.50052088    -0.71900
O342        O  0.16811220  0.72696053  0.43678470    -0.84000
Zr343      Zr  0.22262991  0.77623952  0.36880960     2.26400
Zr344      Zr  0.23677736  0.76396786  0.50392017     2.06300
Zr345      Zr  0.15510220  0.75982887  0.38112066     2.10000
Zr346      Zr  0.18074379  0.81028518  0.47181246     1.78800
O347        O  0.12350287  0.74346267  0.32490584    -0.92800
O348        O  0.20352473  0.83716497  0.52840537    -0.40600
O349        O  0.18272937  0.79458018  0.38868283    -0.77200
O350        O  0.22215678  0.79602219  0.44815458    -0.95900
O351        O  0.23656251  0.74489485  0.42561260    -0.89200
O352        O  0.19473734  0.74163419  0.36251210    -0.92100
C353        C  0.14157281  0.79491541  0.57166840     1.01700
C354        C  0.11628297  0.72224000  0.45012674     1.14600
C355        C  0.20767232  0.75343224  0.61743620     1.05400
O356        O  0.25649441  0.80249000  0.53189515    -0.94200
O357        O  0.27586404  0.76351420  0.45460570    -0.90000
O358        O  0.26682647  0.78252200  0.38134443    -0.83100
C359        C  0.28208836  0.77232647  0.41189184     1.12000
O360        O  0.19335988  0.67385347  0.46524006    -0.96200
Zr361      Zr  0.20858484  0.71064187  0.42025850     1.88900
O362        O  0.24613947  0.74617627  0.32090848    -0.72900
O363        O  0.26743417  0.73847609  0.54864675    -0.52100
O364        O  0.24457003  0.68641702  0.44962351    -0.96800
O365        O  0.18707160  0.68086319  0.36740939    -0.54000
O366        O  0.23696729  0.70742115  0.35222032    -0.73400
C367        C  0.24821486  0.72223258  0.32231405     0.99000
O368        O  0.23433270  0.81536709  0.32772355    -0.62200
O369        O  0.12800907  0.79657992  0.37565862    -0.57000
O370        O  0.20512481  0.77754209  0.28628971    -0.93700
O371        O  0.16489487  0.76369637  0.29348071    -0.92100
O372        O  0.14461811  0.83462152  0.44363070    -0.92500
O373        O  0.19271278  0.85081048  0.43684740    -0.91200
C374        C  0.18400450  0.77071590  0.26803223     1.17800
H375        H  0.13532790  0.78089846  0.46996397     0.33800
H376        H  0.23367396  0.81003804  0.44775513     0.44600
H377        H  0.19493520  0.73410440  0.33042013     0.38100
H378        H  0.21369020  0.71591782  0.52479343     0.34600
H379        H  0.19039587  0.84759885  0.54388968     0.26400
H380        H  0.27470703  0.72717386  0.52380437     0.32300
H381        H  0.25768048  0.69908543  0.45641208     0.38300
H382        H  0.13826735  0.84299271  0.47342170     0.32700
H383        H  0.12746680  0.80099362  0.34016404     0.31600
H384        H  0.11346090  0.75815614  0.31396535     0.33300
H385        H  0.19809953  0.67886930  0.33844225     0.32200
H386        H  0.20513303  0.84681834  0.41100885     0.36200
H387        H  0.21815909  0.82407008  0.32148450     0.29000
H388        H  0.14862381  0.71224371  0.59409669     0.33200
H389        H  0.20324059  0.65953940  0.45278834     0.36100
H390        H  0.11094911  0.79022977  0.38324096     0.28700
H391        H  0.24252556  0.82539432  0.35361448     0.41500
H392        H  0.25814275  0.80023187  0.56794031     0.31600
H393        H  0.20932674  0.82576548  0.55509753     0.39200
H394        H  0.17228209  0.69016975  0.35464692     0.31100
H395        H  0.28121244  0.75023598  0.55665746     0.31100
H396        H  0.17286860  0.69899300  0.57434032     0.31400
Zr397      Zr  0.56414618  0.98443451  0.33710948     2.17500
O398        O  0.53236320  0.98782696  0.27252963    -0.51000
O399        O  0.52861292  0.00472513  0.38094885    -0.74200
O400        O  0.53873067  0.94654811  0.33349010    -0.81000
O401        O  0.61398943  0.02115412  0.25792076    -0.82700
O402        O  0.54633629  0.92161484  0.40040494    -0.78300
O403        O  0.57374461  0.00628489  0.25925628    -0.90000
O404        O  0.54154102  0.01045089  0.45943016    -0.75900
O405        O  0.56521226  0.97376227  0.42192006    -0.85400
O406        O  0.58855175  0.01748638  0.37260822    -0.85100
O407        O  0.58513174  0.94418774  0.34143935    -0.71900
O408        O  0.60580970  0.98426806  0.30380012    -0.84000
Zr409      Zr  0.65183421  0.96424156  0.42646686     2.26400
Zr410      Zr  0.58721994  0.93466539  0.42789695     2.06300
Zr411      Zr  0.63137608  0.01576475  0.34033764     2.10000
Zr412      Zr  0.58854283  0.00646895  0.45790807     1.78800
O413        O  0.64808439  0.04710068  0.28310314    -0.92800
O414        O  0.57754544  0.99236871  0.54072857    -0.40600
O415        O  0.63145713  0.00489237  0.42547000    -0.77200
O416        O  0.61104636  0.96719141  0.46564834    -0.95900
O417        O  0.62709805  0.93304997  0.38850549    -0.89200
O418        O  0.65059030  0.97524548  0.34162369    -0.92100
C419        C  0.52399232  0.00996133  0.42632307     1.01700
C420        C  0.59259572  0.01692749  0.23771704     1.14600
C421        C  0.53555843  0.92654694  0.35948249     1.05400
O422        O  0.56162664  0.92836817  0.50116324    -0.94200
O423        O  0.61257194  0.91485282  0.49142705    -0.90000
O424        O  0.65137429  0.93301040  0.49075997    -0.83100
C425        C  0.63512085  0.91739903  0.50720486     1.12000
O426        O  0.60247985  0.94068631  0.22623440    -0.96200
Zr427      Zr  0.62517042  0.94455925  0.30380483     1.88900
O428        O  0.67574111  0.92752186  0.39549461    -0.72900
O429        O  0.58938732  0.89025557  0.40806658    -0.52100
O430        O  0.61529574  0.90079874  0.28745651    -0.96800
O431        O  0.65153227  0.95795279  0.23497714    -0.54000
O432        O  0.66153193  0.91946130  0.31831747    -0.73400
C433        C  0.67582448  0.91503176  0.35499667     0.99000
O434        O  0.67588313  0.97864367  0.49715493    -0.62200
O435        O  0.62541145  0.05558447  0.38180090    -0.57000
O436        O  0.69049856  0.98559765  0.40290025    -0.93700
O437        O  0.67866560  0.01613923  0.34841808    -0.92100
O438        O  0.58229159  0.05175243  0.45452989    -0.92500
O439        O  0.60958780  0.02996015  0.52223384    -0.91200
C440        C  0.69566787  0.00350080  0.37261819     1.17800
H441        H  0.58071319  0.03348403  0.36606561     0.33800
H442        H  0.61291786  0.96368418  0.50039407     0.44600
H443        H  0.66671937  0.97437193  0.32556047     0.38100
H444        H  0.57768986  0.93068759  0.32320843     0.34600
H445        H  0.56445763  0.00428763  0.55158876     0.26400
H446        H  0.57838292  0.88183227  0.43248252     0.32300
H447        H  0.62787699  0.89538697  0.26296446     0.38300
H448        H  0.56386538  0.05423528  0.45242030     0.32700
H449        H  0.64263727  0.06143740  0.38941626     0.31600
H450        H  0.65946301  0.05766945  0.30285475     0.33300
H451        H  0.66908920  0.95568313  0.24628189     0.32200
H452        H  0.62551779  0.02077839  0.52813194     0.36200
H453        H  0.67708356  0.99706527  0.49262983     0.29000
H454        H  0.51601344  0.98571682  0.28935867     0.33200
H455        H  0.61314357  0.93000322  0.20526319     0.36100
H456        H  0.61923579  0.06731503  0.35595879     0.28700
H457        H  0.66442212  0.97652836  0.52557833     0.41500
H458        H  0.56205024  0.91005400  0.50762892     0.31600
H459        H  0.56838855  0.97642632  0.53597203     0.39200
H460        H  0.64917646  0.97637133  0.23278380     0.31100
H461        H  0.58045221  0.88850913  0.37627052     0.31100
H462        H  0.53425752  0.97256757  0.25240630     0.31400
Zr463      Zr  0.89482568  0.97147658  0.44779855     2.17500
O464        O  0.91909055  0.97733528  0.52317042    -0.51000
O465        O  0.93529610  0.99035180  0.42350350    -0.74200
O466        O  0.91885104  0.93316261  0.46088794    -0.81000
O467        O  0.83894332  0.00848120  0.50410136    -0.82700
O468        O  0.91414360  0.90715625  0.39563357    -0.78300
O469        O  0.87595165  0.98865792  0.52190653    -0.90000
O470        O  0.93322435  0.99710826  0.34129942    -0.75900
O471        O  0.90390389  0.96414453  0.36405143    -0.85400
O472        O  0.87758982  0.00743378  0.40587182    -0.85100
O473        O  0.87343326  0.93267472  0.43013165    -0.71900
O474        O  0.85049258  0.97282480  0.45944367    -0.84000
Zr475      Zr  0.81985908  0.95997742  0.31860009     2.26400
Zr476      Zr  0.88196940  0.92665782  0.34419744     2.06300
Zr477      Zr  0.83215621  0.00735163  0.41600821     2.10000
Zr478      Zr  0.88729679  0.99949551  0.32202520     1.78800
O479        O  0.80957228  0.03813915  0.46465947    -0.92800
O480        O  0.90642862  0.99102810  0.24258568    -0.40600
O481        O  0.84159332  0.99922057  0.33228371    -0.77200
O482        O  0.86461947  0.96209602  0.30015363    -0.95900
O483        O  0.83825700  0.92607756  0.36364045    -0.89200
O484        O  0.81153228  0.96828091  0.40270305    -0.92100
C485        C  0.94586502  0.99481226  0.38182176     1.01700
C486        C  0.85594825  0.00061547  0.53399468     1.14600
C487        C  0.92334247  0.91283710  0.43765956     1.05400
O488        O  0.91943804  0.92591631  0.29283058    -0.94200
O489        O  0.86526258  0.91266739  0.26622436    -0.90000
O490        O  0.82905401  0.93409112  0.24915504    -0.83100
C491        C  0.84620470  0.91812045  0.23923065     1.12000
O492        O  0.84199576  0.92012112  0.52956372    -0.96200
Zr493      Zr  0.82974656  0.93452284  0.44763488     1.88900
O494        O  0.79823079  0.91943671  0.33480563    -0.72900
O495        O  0.87602287  0.88139488  0.34128706    -0.52100
O496        O  0.83010420  0.88896430  0.45462631    -0.96800
O497        O  0.80282810  0.94928860  0.51363707    -0.54000
O498        O  0.78968138  0.92307390  0.41462234    -0.73400
C499        C  0.78887228  0.91075874  0.37517705     0.99000
O500        O  0.79817480  0.97563240  0.24531600    -0.62200
O501        O  0.84541529  0.04743287  0.38064962    -0.57000
O502        O  0.77980769  0.98259903  0.32963674    -0.93700
O503        O  0.78751518  0.01153071  0.38853812    -0.92100
O504        O  0.89733042  0.04326739  0.33772956    -0.92500
O505        O  0.87536489  0.02834092  0.25586660    -0.91200
C506        C  0.77262917  0.00039722  0.35809726     1.17800
H507        H  0.88521873  0.02267265  0.41816864     0.33800
H508        H  0.86725881  0.96040576  0.26529229     0.44600
H509        H  0.79405078  0.96847777  0.41211652     0.38100
H510        H  0.87808573  0.91844819  0.45032884     0.34600
H511        H  0.92067607  0.00292356  0.24017178     0.26400
H512        H  0.89311581  0.87418991  0.33864344     0.36300
H513        H  0.81589851  0.88488471  0.47681265     0.38300
H514        H  0.91506539  0.04519674  0.32729805     0.32700
H515        H  0.83014144  0.05436592  0.36457160     0.31600
H516        H  0.80350176  0.05100253  0.44089845     0.33300
H517        H  0.78581419  0.94301184  0.50546350     0.32200
H518        H  0.86047325  0.02051085  0.24046200     0.36200
H519        H  0.81148281  0.97798003  0.22024619     0.29000
H520        H  0.93696660  0.97601072  0.51349063     0.33200
H521        H  0.85652359  0.93080775  0.53828436     0.36100
H522        H  0.84843847  0.05840380  0.40913397     0.28700
H523        H  0.78803927  0.96133257  0.23355054     0.41500
H524        H  0.91522652  0.91455318  0.26551822     0.31600
H525        H  0.91449002  0.97441008  0.24700427     0.39200
H526        H  0.80173244  0.96765567  0.50842867     0.31100
H527        H  0.87027757  0.87662753  0.37473803     0.31100
H528        H  0.91603154  0.96199032  0.54318542     0.31400
Zr529      Zr  0.56771883  0.51601171  0.97822305     2.17500
O530        O  0.54267412  0.50772524  0.05178986    -0.51000
O531        O  0.53098324  0.50093024  0.93439918    -0.74200
O532        O  0.53894968  0.54975699  0.99506562    -0.81000
O533        O  0.61143652  0.46427645  0.02500535    -0.82700
O534        O  0.54836943  0.58420385  0.94825317    -0.78300
O535        O  0.57126445  0.47911224  0.02837264    -0.90000
O536        O  0.54040384  0.50625178  0.85380591    -0.75900
O537        O  0.56662159  0.53827298  0.90240577    -0.85400
O538        O  0.58953636  0.48879882  0.92385795    -0.85100
O539        O  0.58799278  0.55526836  0.99384503    -0.71900
O540        O  0.60913589  0.50985515  0.01134383    -0.84000
Zr541      Zr  0.65230299  0.54501210  0.89494666     2.26400
Zr542      Zr  0.58944352  0.57635504  0.91525288     2.06300
Zr543      Zr  0.63237150  0.48457367  0.95444219     2.10000
Zr544      Zr  0.58745613  0.51138592  0.84792357     1.78800
O545        O  0.65211587  0.44695569  0.98883189    -0.92800
O546        O  0.57064077  0.53522202  0.77827471    -0.40600
O547        O  0.63085839  0.50625336  0.87705173    -0.77200
O548        O  0.61094316  0.54994792  0.85881277    -0.95900
O549        O  0.63002947  0.57083317  0.95015659    -0.89200
O550        O  0.65180729  0.52372076  0.97228505    -0.92100
C551        C  0.52449575  0.50194535  0.88909065     1.01700
C552        C  0.58906035  0.46482218  0.04304487     1.14600
C553        C  0.53499510  0.57211866  0.97943744     1.05400
O554        O  0.56605204  0.59156779  0.84380693    -0.94200
O555        O  0.61724422  0.60676513  0.87629067    -0.90000
O556        O  0.65475365  0.58735161  0.86327419    -0.83100
C557        C  0.64016322  0.60641814  0.86174685     1.12000
O558        O  0.60766657  0.54781505  0.10605066    -0.96200
Zr559      Zr  0.62871859  0.54899487  0.02666647     1.88900
O560        O  0.68344644  0.56783941  0.94305423    -0.72900
O561        O  0.58951330  0.61600034  0.95896028    -0.52100
O562        O  0.62179622  0.59034253  0.06110415    -0.96800
O563        O  0.65338810  0.52644972  0.08860071    -0.54000
O564        O  0.66844054  0.56992280  0.02127121    -0.73400
C565        C  0.68484638  0.57450763  0.98820503     0.99000
O566        O  0.67172654  0.54371151  0.81397299    -0.62200
O567        O  0.62709473  0.45427241  0.88883826    -0.57000
O568        O  0.69057846  0.52040682  0.90216056    -0.93700
O569        O  0.67984676  0.48607735  0.94798435    -0.92100
O570        O  0.58083718  0.46800919  0.82415524    -0.92500
O571        O  0.60750986  0.50301872  0.76934922    -0.91200
C572        C  0.69640226  0.50073090  0.92724337     1.17800
H573        H  0.58119882  0.47279971  0.92203672     0.33800
H574        H  0.61243223  0.55849745  0.82740111     0.44600
H575        H  0.66809803  0.52245621  0.98774962     0.38100
H576        H  0.57939585  0.56516996  0.01791666     0.34600
H577        H  0.55918977  0.52344707  0.76151059     0.26400
H578        H  0.57629146  0.62620980  0.94281339     0.32300
H579        H  0.62687752  0.60226016  0.03474029     0.38300
H580        H  0.56921978  0.46906360  0.79567950     0.32700
H581        H  0.64438680  0.45045428  0.87779722     0.31600
H582        H  0.66081528  0.43886751  0.96104091     0.33300
H583        H  0.67113239  0.53096094  0.08184317     0.32200
H584        H  0.62515716  0.49882296  0.77770565     0.36200
H585        H  0.67356442  0.52562725  0.80706629     0.29000
H586        H  0.52488660  0.50981020  0.04159906     0.33200
H587        H  0.59650607  0.53298556  0.10455465     0.36100
H588        H  0.62130132  0.43872771  0.90562059     0.28700
H589        H  0.65836531  0.54947699  0.79104667     0.41500
H590        H  0.56816553  0.61000174  0.84423470     0.31600
H591        H  0.55927815  0.54771758  0.79322560     0.39200
H592        H  0.65209451  0.50862526  0.07925576     0.31100
H593        H  0.58275732  0.61204110  0.99213961     0.31100
H594        H  0.54609982  0.52190146  0.07397100     0.31400
Zr595      Zr  0.90118107  0.50121015  0.87511303     2.17500
O596        O  0.91709215  0.47873549  0.80415735    -0.51000
O597        O  0.93899358  0.49712096  0.92352468    -0.74200
O598        O  0.93797361  0.52750566  0.85670040    -0.81000
O599        O  0.86253188  0.44881586  0.94016112    -0.82700
O600        O  0.92554844  0.56713181  0.87466725    -0.78300
O601        O  0.90038127  0.45843117  0.90492538    -0.90000
O602        O  0.93288997  0.52732998  0.98035298    -0.75900
O603        O  0.90162907  0.54069537  0.91186917    -0.85400
O604        O  0.88006897  0.49680751  0.95227445    -0.85100
O605        O  0.88233223  0.53032053  0.81758658    -0.71900
O606        O  0.85876754  0.48838579  0.85702000    -0.84000
Zr607      Zr  0.81833435  0.55232611  0.91483124     2.26400
Zr608      Zr  0.88115700  0.56979117  0.85962663     2.06300
Zr609      Zr  0.83678760  0.48606512  0.93476188     2.10000
Zr610      Zr  0.88512411  0.53607920  0.98919954     1.78800
O611        O  0.81610935  0.44660343  0.91566269    -0.92800
O612        O  0.90586899  0.57488110  0.01243909    -0.40600
O613        O  0.84063276  0.52580674  0.97350238    -0.77200
O614        O  0.86073644  0.56491894  0.93779698    -0.95900
O615        O  0.84029500  0.55689722  0.83973316    -0.89200
O616        O  0.81771199  0.51300518  0.87474680    -0.92100
C617        C  0.94759355  0.51215720  0.95570235     1.01700
C618        C  0.88504480  0.44361669  0.92722389     1.14600
C619        C  0.94239300  0.55059862  0.86695027     1.05400
O620        O  0.90396424  0.60942013  0.85897711    -0.94200
O621        O  0.85708908  0.60773182  0.87399062    -0.90000
O622        O  0.81959358  0.59738234  0.90900492    -0.83100
C623        C  0.83560314  0.61319055  0.89217349     1.12000
O624        O  0.85467832  0.48361933  0.74812402    -0.96200
Zr625      Zr  0.84004937  0.51765184  0.79988561     1.88900
O626        O  0.79491020  0.56868291  0.84279976    -0.72900
O627        O  0.88323205  0.57732136  0.77107681    -0.52100
O628        O  0.85388860  0.53448057  0.72074099    -0.96800
O629        O  0.80338665  0.49401900  0.77233115    -0.54000
O630        O  0.80988048  0.54946842  0.77446712    -0.73400
C631        C  0.79616073  0.56580895  0.79581604     0.99000
O632        O  0.79573165  0.57083657  0.98334756    -0.62200
O633        O  0.83196205  0.47964456  0.02301594    -0.57000
O634        O  0.77906301  0.52899127  0.93141455    -0.93700
O635        O  0.79012711  0.48816721  0.94337282    -0.92100
O636        O  0.89222325  0.50739204  0.05826051    -0.92500
O637        O  0.86816987  0.55295219  0.06501127    -0.91200
C638        C  0.77343784  0.50575691  0.93935016     1.17800
H639        H  0.88807859  0.48489053  0.97427604     0.33800
H640        H  0.86023234  0.58079657  0.95469430     0.44600
H641        H  0.80114982  0.50774593  0.86507063     0.38100
H642        H  0.89236078  0.53131183  0.78794244     0.34600
H643        H  0.91691140  0.57004054  0.04042882     0.26400
H644        H  0.87348855  0.59294761  0.76539832     0.32300
H645        H  0.83916804  0.53266363  0.69867477     0.38300
H646        H  0.90977779  0.51064344  0.06864726     0.32700
H647        H  0.81991726  0.46556389  0.02620030     0.31600
H648        H  0.81134380  0.43928178  0.94799844     0.33300
H649        H  0.78851814  0.50418683  0.78132437     0.32200
H650        H  0.85573159  0.56567542  0.05400987     0.36200
H651        H  0.79138370  0.55656588  0.00533250     0.29000
H652        H  0.91671014  0.49111844  0.77673432     0.33200
H653        H  0.84280596  0.48302608  0.72007025     0.36100
H654        H  0.84824928  0.47248934  0.03398101     0.28700
H655        H  0.80878080  0.58008862  0.00180186     0.41500
H656        H  0.90298486  0.61580307  0.82471725     0.31600
H657        H  0.91761178  0.57857860  0.98513349     0.39200
H658        H  0.80268538  0.47915404  0.79441129     0.31100
H659        H  0.90090634  0.58203879  0.76453449     0.31100
H660        H  0.90363854  0.46661419  0.79612004     0.31400
Zr661      Zr  0.75598614  0.72520326  0.70477380     2.17500
O662        O  0.79534145  0.71688210  0.74804604    -0.51000
O663        O  0.72606385  0.70193103  0.75518014    -0.74200
O664        O  0.75411007  0.74568950  0.78440847    -0.81000
O665        O  0.76577535  0.67105272  0.61669380    -0.82700
O666        O  0.73449966  0.78315170  0.77212240    -0.78300
O667        O  0.76852181  0.68196747  0.69741999    -0.90000
O668        O  0.68851288  0.70292668  0.71475639    -0.75900
O669        O  0.71729447  0.74725080  0.70324172    -0.85400
O670        O  0.73028450  0.70611896  0.64359510    -0.85100
O671        O  0.76795693  0.76755756  0.68485837    -0.71900
O672        O  0.77936052  0.72868397  0.62904455    -0.84000
Zr673      Zr  0.72449439  0.77322005  0.54597126     2.26400
Zr674      Zr  0.72868526  0.78916474  0.68336686     2.06300
Zr675      Zr  0.75347479  0.70873337  0.56849761     2.10000
Zr676      Zr  0.69193383  0.72855069  0.64158808     1.78800
O677        O  0.79342265  0.69391345  0.53642726    -0.92800
O678        O  0.65796941  0.74767804  0.68800004    -0.40600
O679        O  0.71388592  0.73044958  0.56456723    -0.77200
O680        O  0.70186636  0.77080021  0.62214165    -0.95900
O681        O  0.74989445  0.79345798  0.60605454    -0.89200
O682        O  0.76350667  0.75133570  0.54795153    -0.92100
C683        C  0.70276426  0.69618129  0.75043222     1.01700
C684        C  0.76966316  0.66603401  0.66267496     1.14600
C685        C  0.74443303  0.76617793  0.79995017     1.05400
O686        O  0.69303111  0.80425859  0.73065074    -0.94200
O687        O  0.70653337  0.82244954  0.64188322    -0.90000
O688        O  0.70416522  0.81337677  0.56011354    -0.83100
C689        C  0.69973220  0.82709762  0.59764297     1.12000
O690        O  0.82787017  0.76528966  0.65165529    -0.96200
Zr691      Zr  0.78873410  0.77170339  0.60630776     1.88900
O692        O  0.74996083  0.80219932  0.50039325    -0.72900
O693        O  0.75509162  0.82496296  0.70364104    -0.52100
O694        O  0.80482174  0.81082838  0.63927048    -0.96800
O695        O  0.82252845  0.75486448  0.55591180    -0.54000
O696        O  0.78920671  0.80062178  0.53387606    -0.73400
C697        C  0.77299856  0.80876913  0.50195895     0.99000
O698        O  0.68664080  0.77621129  0.49553366    -0.62200
O699        O  0.72913642  0.67473996  0.53307672    -0.57000
O700        O  0.73263948  0.75445337  0.46599565    -0.93700
O701        O  0.75090715  0.71617413  0.47883796    -0.92100
O702        O  0.67208018  0.68969015  0.61578036    -0.92500
O703        O  0.65522387  0.73587418  0.58965707    -0.91200
C704        C  0.74298826  0.73419783  0.45067406     1.17800
H705        H  0.72622678  0.68897347  0.65206170     0.33800
H706        H  0.68617695  0.77969439  0.61972395     0.44600
H707        H  0.77246303  0.75261948  0.51723875     0.38100
H708        H  0.77863010  0.77419337  0.71039262     0.34600
H709        H  0.64601023  0.73380801  0.69455610     0.26400
H710        H  0.74547669  0.83989711  0.69251025     0.32300
H711        H  0.79430263  0.82409352  0.62389628     0.38300
H712        H  0.68466686  0.67642554  0.62252351     0.32700
H713        H  0.74173483  0.66173717  0.52512974     0.31600
H714        H  0.78891322  0.67933959  0.51601728     0.33300
H715        H  0.82012368  0.76245737  0.52284407     0.32200
H716        H  0.66134691  0.73345025  0.55566933     0.36200
H717        H  0.68387087  0.75904998  0.48317670     0.29000
H718        H  0.79033375  0.71093936  0.78126303     0.33200
H719        H  0.84049722  0.77606524  0.63499455     0.36100
H720        H  0.71956490  0.66753492  0.56106305     0.28700
H721        H  0.67283366  0.77874328  0.51935119     0.41500
H722        H  0.69843181  0.82084746  0.74275121     0.31600
H723        H  0.66541979  0.75134357  0.72053383     0.39200
H724        H  0.81821469  0.73696853  0.55174716     0.31100
H725        H  0.75481757  0.82582149  0.73997203     0.31100
H726        H  0.80285370  0.73361722  0.75333881     0.31400
Zr727      Zr  0.73330489  0.72856201  0.04942260     2.17500
O728        O  0.69419540  0.71649677  0.00938126    -0.51000
O729        O  0.76418641  0.70912027  0.99657936    -0.74200
O730        O  0.73339794  0.74774813  0.96799486    -0.81000
O731        O  0.73083123  0.67418240  0.14155270    -0.82700
O732        O  0.75101523  0.78627442  0.97657072    -0.78300
O733        O  0.72637360  0.68432496  0.06024777    -0.90000
O734        O  0.80295902  0.71597522  0.02946353    -0.75900
O735        O  0.76977354  0.75394949  0.04664889    -0.85400
O736        O  0.76195645  0.71181391  0.10885615    -0.85100
O737        O  0.71760760  0.76968520  0.06736187    -0.71900
O738        O  0.71121443  0.73032096  0.12668659    -0.84000
Zr739      Zr  0.76379167  0.77956652  0.20316455     2.26400
Zr740      Zr  0.75475848  0.79458628  0.06499731     2.06300
Zr741      Zr  0.74023181  0.71294379  0.18558093     2.10000
Zr742      Zr  0.79806492  0.73733693  0.10654102     1.78800
O743        O  0.70234334  0.69530889  0.22231110    -0.92800
O744        O  0.83114111  0.76076532  0.06447787    -0.40600
O745        O  0.77777194  0.73798046  0.18527006    -0.77200
O746        O  0.78453418  0.77838577  0.12469051    -0.95900
O747        O  0.73535717  0.79749548  0.14420481    -0.89200
O748        O  0.72679560  0.75450421  0.20536062    -0.92100
C749        C  0.78822975  0.70742315  0.99644592     1.01700
C750        C  0.72726431  0.66863290  0.09614609     1.14600
C751        C  0.74228655  0.76831063  0.95038177     1.05400
O752        O  0.78415039  0.81802105  0.01363151    -0.94200
O753        O  0.77656562  0.82908864  0.10130029    -0.90000
O754        O  0.78371494  0.81942500  0.18222554    -0.83100
C755        C  0.78601046  0.83335700  0.14356832     1.12000
O756        O  0.65915195  0.76009204  0.10875267    -0.96200
Zr757      Zr  0.69856227  0.77251203  0.14761048     1.88900
O758        O  0.73701784  0.80868492  0.24468537    -0.72900
O759        O  0.72203592  0.82512688  0.04555373    -0.52100
O760        O  0.67899189  0.80905147  0.10865452    -0.96800
O761        O  0.66645730  0.75663327  0.20401698    -0.54000
O762        O  0.69758115  0.80424337  0.21336872    -0.73400
C763        C  0.71374471  0.81445943  0.24242309     0.99000
O764        O  0.80040526  0.78701277  0.25533065    -0.62200
O765        O  0.76778595  0.68081013  0.22042444    -0.57000
O766        O  0.75994689  0.75888612  0.28442540    -0.93700
O767        O  0.74531212  0.71911560  0.27387988    -0.92100
O768        O  0.81711374  0.69723913  0.12890108    -0.92500
O769        O  0.83537567  0.74296047  0.15733169    -0.91200
C770        C  0.75241974  0.73738762  0.30097040     1.17800
H771        H  0.76764573  0.69519548  0.10102198     0.33800
H772        H  0.79978172  0.78816464  0.12469419     0.44600
H773        H  0.71887443  0.75503339  0.23733561     0.38100
H774        H  0.70590704  0.77515472  0.04217398     0.34600
H775        H  0.84400752  0.74804343  0.05648608     0.26400
H776        H  0.72627055  0.83984673  0.06578488     0.32300
H777        H  0.68518721  0.82363752  0.12729986     0.38300
H778        H  0.83070542  0.69483575  0.10459705     0.32700
H779        H  0.75629918  0.66852321  0.23614439     0.31600
H780        H  0.69499811  0.70918911  0.24140124     0.33300
H781        H  0.65645188  0.77157789  0.21275625     0.32200
H782        H  0.82943000  0.74065011  0.19157523     0.36200
H783        H  0.80612215  0.77011483  0.26588817     0.29000
H784        H  0.69946613  0.70881527  0.97806775     0.33200
H785        H  0.64666017  0.77305027  0.11758906     0.36100
H786        H  0.77477193  0.67193963  0.19169855     0.28700
H787        H  0.81380692  0.79285292  0.23273857     0.41500
H788        H  0.79858370  0.80652685  0.00929378     0.31600
H789        H  0.82370657  0.76553429  0.03226753     0.39200
H790        H  0.67541234  0.75203317  0.23474864     0.31100
H791        H  0.72567777  0.83059252  0.01137533     0.31100
H792        H  0.68617905  0.73254032  0.99946624     0.31400
Zr793      Zr  0.50363571  0.33892781  0.28528099     2.17500
O794        O  0.48693982  0.32157182  0.36184651    -0.51000
O795        O  0.54215821  0.31425371  0.27457936    -0.74200
O796        O  0.48643711  0.29684936  0.27112412    -0.81000
O797        O  0.54187958  0.39113101  0.34089078    -0.82700
O798        O  0.46261929  0.30105580  0.20198551    -0.78300
O799        O  0.52712306  0.35171872  0.35684722    -0.90000
O800        O  0.53558453  0.30968474  0.19485027    -0.75900
O801        O  0.49727065  0.32992801  0.20042901    -0.85400
O802        O  0.53758320  0.35967718  0.24265797    -0.85100
O803        O  0.46297481  0.35707336  0.26566553    -0.71900
O804        O  0.49939974  0.38334391  0.29990097    -0.84000
Zr805      Zr  0.48758184  0.41256300  0.15288649     2.26400
Zr806      Zr  0.45725930  0.34718647  0.18048324     2.06300
Zr807      Zr  0.53326282  0.40325640  0.25668661     2.10000
Zr808      Zr  0.53028397  0.35082309  0.15818771     1.78800
O809        O  0.53459862  0.44415245  0.29639267    -0.92800
O810        O  0.52372779  0.32317086  0.08814510    -0.40600
O811        O  0.52268409  0.39158692  0.17916988    -0.77200
O812        O  0.49066520  0.36804526  0.13494176    -0.95900
O813        O  0.45311091  0.39213911  0.19343680    -0.89200
O814        O  0.49434058  0.42237139  0.23681683    -0.92100
C815        C  0.54965764  0.30713721  0.23230470     1.01700
C816        C  0.53892449  0.37175521  0.36842759     1.14600
C817        C  0.47307681  0.28739354  0.23647076     1.05400
O818        O  0.42869729  0.31996923  0.13558317    -0.94200
O819        O  0.44631182  0.35999275  0.09587104    -0.90000
O820        O  0.46166560  0.39957788  0.08418387    -0.83100
C821        C  0.44986889  0.38001678  0.06983567     1.12000
O822        O  0.43576354  0.38993246  0.34988572    -0.96200
Zr823      Zr  0.45988670  0.40246073  0.27757973     1.88900
O824        O  0.46849995  0.45302025  0.17977773    -0.72900
O825        O  0.41640837  0.35159979  0.21997491    -0.52100
O826        O  0.41456555  0.40392465  0.26422131    -0.96800
O827        O  0.47006310  0.42278859  0.35488357    -0.54000
O828        O  0.45284559  0.44768488  0.25671994    -0.73400
C829        C  0.45807431  0.46172193  0.21896645     0.99000
O830        O  0.48332853  0.44193274  0.08344105    -0.62200
O831        O  0.57877704  0.40223750  0.26927916    -0.57000
O832        O  0.52890758  0.42842283  0.12849959    -0.93700
O833        O  0.55572593  0.42694330  0.19377613    -0.92100
O834        O  0.57567864  0.35499364  0.16637926    -0.92500
O835        O  0.55093727  0.36066195  0.08048009    -0.91200
C836        C  0.55039129  0.43215872  0.14884705     1.17800
H837        H  0.55425891  0.35510006  0.25355733     0.33800
H838        H  0.49077578  0.36474600  0.10024135     0.44600
H839        H  0.49694316  0.43980465  0.24382712     0.38100
H840        H  0.45044465  0.34865759  0.28549840     0.34600
H841        H  0.53695449  0.31015316  0.09125961     0.26400
H842        H  0.40480386  0.35644789  0.19299618     0.32300
H843        H  0.41111288  0.42089201  0.25068188     0.38300
H844        H  0.57853373  0.37327680  0.16900433     0.32700
H845        H  0.58220085  0.41556282  0.29346299     0.31600
H846        H  0.53551666  0.44048494  0.33214952     0.33300
H847        H  0.46171976  0.43937361  0.35284183     0.32200
H848        H  0.54470973  0.37762840  0.07174828     0.36200
H849        H  0.49110810  0.45783365  0.09418502     0.29000
H850        H  0.49597548  0.30550247  0.36695852     0.33200
H851        H  0.44520326  0.37559799  0.36426160     0.36100
H852        H  0.58235815  0.38639411  0.28733032     0.28700
H853        H  0.49477503  0.43563174  0.05773403     0.41500
H854        H  0.43970735  0.30966050  0.11458267     0.31600
H855        H  0.50787966  0.31415207  0.09555648     0.39200
H856        H  0.48823248  0.42661747  0.35251965     0.31100
H857        H  0.41141611  0.33426607  0.22913715     0.31100
H858        H  0.46940511  0.31671598  0.35428206     0.31400
Zr859      Zr  0.49915816  0.16763890  0.14055086     2.17500
O860        O  0.47191935  0.19059983  0.08344415    -0.51000
O861        O  0.52935692  0.20011616  0.16795372    -0.74200
O862        O  0.47971153  0.20352680  0.17940139    -0.81000
O863        O  0.52646999  0.13360059  0.03067337    -0.82700
O864        O  0.47812118  0.19257622  0.26031169    -0.78300
O865        O  0.51462780  0.17205128  0.05823442    -0.90000
O866        O  0.56639223  0.18008043  0.17521647    -0.75900
O867        O  0.51663850  0.16486298  0.22045908    -0.85400
O868        O  0.53743409  0.14464097  0.13201985    -0.85100
O869        O  0.46683187  0.14539644  0.18559717    -0.71900
O870        O  0.48762595  0.12707654  0.10801513    -0.84000
Zr871      Zr  0.51252653  0.08072332  0.23100774     2.26400
Zr872      Zr  0.48424414  0.14537886  0.26721519     2.06300
Zr873      Zr  0.52646099  0.10449572  0.10046530     2.10000
Zr874      Zr  0.55445245  0.14115195  0.21239164     1.78800
O875        O  0.50731472  0.07819835  0.03816239    -0.92800
O876        O  0.56815814  0.16564613  0.28259877    -0.40600
O877        O  0.54357576  0.10131411  0.18163539    -0.77200
O878        O  0.52327291  0.12215113  0.26263402    -0.95900
O879        O  0.47402442  0.10356407  0.23740357    -0.89200
O880        O  0.49671164  0.08140604  0.14911525    -0.92100
C881        C  0.55305353  0.19971030  0.17782320     1.01700
C882        C  0.52326085  0.15733212  0.02562211     1.14600
C883        C  0.47655548  0.20911998  0.22464696     1.05400
O884        O  0.49987866  0.15972496  0.34622927    -0.94200
O885        O  0.47590788  0.11150286  0.32720344    -0.90000
O886        O  0.51083972  0.08945675  0.31666786    -0.83100
C887        C  0.48915462  0.09161691  0.33425478     1.12000
O888        O  0.42198511  0.12223197  0.11517262    -0.96200
Zr889      Zr  0.45792358  0.10285048  0.15639930     1.88900
O890        O  0.48477986  0.04378551  0.22049782    -0.72900
O891        O  0.44124623  0.15546059  0.29027312    -0.52100
O892        O  0.42052747  0.10020136  0.20765116    -0.96800
O893        O  0.44756334  0.08604685  0.07593065    -0.54000
O894        O  0.45247193  0.05633013  0.17159765    -0.73400
C895        C  0.46475413  0.03896949  0.19551277     0.99000
O896        O  0.52856591  0.04947578  0.28906006    -0.62200
O897        O  0.56639586  0.10351888  0.05647885    -0.57000
O898        O  0.54721429  0.05888427  0.19584511    -0.93700
O899        O  0.55329950  0.06786547  0.11482513    -0.92100
O900        O  0.59391169  0.13256817  0.17056630    -0.92500
O901        O  0.58366166  0.11824487  0.26544380    -0.91200
C902        C  0.55812940  0.05562075  0.15465602     1.17800
H903        H  0.54939660  0.15290496  0.11043633     0.33800
H904        H  0.53168207  0.12295980  0.29412970     0.44600
H905        H  0.49507153  0.06486444  0.13560960     0.38100
H906        H  0.45152428  0.15519336  0.18513920     0.34600
H907        H  0.58474046  0.17252139  0.27280156     0.26400
H908        H  0.43193759  0.13955184  0.28629350     0.32300
H909        H  0.41545539  0.11780260  0.21313431     0.38300
H910        H  0.59044073  0.11761908  0.15041050     0.32700
H911        H  0.56201946  0.09970255  0.02196296     0.31600
H912        H  0.51306309  0.06099160  0.04643389     0.33300
H913        H  0.45545255  0.06921788  0.07535076     0.32200
H914        H  0.57730962  0.10078460  0.26581305     0.36200
H915        H  0.52867694  0.03377925  0.27024155     0.29000
H916        H  0.47763984  0.20827562  0.08437639     0.33200
H917        H  0.42594590  0.14036462  0.11410202     0.36100
H918        H  0.57250403  0.12106603  0.05559166     0.28700
H919        H  0.54655964  0.05367108  0.29368634     0.41500
H920        H  0.51799597  0.16293171  0.34066502     0.31600
H921        H  0.55683990  0.18036928  0.28282225     0.39200
H922        H  0.45752679  0.09618370  0.05229751     0.31100
H923        H  0.44200228  0.15785537  0.32628868     0.31100
H924        H  0.45513399  0.19062796  0.09910517     0.31400
Zr925      Zr  0.89848331  0.15601901  0.71947726     2.17500
O926        O  0.90639037  0.17566876  0.79841525    -0.51000
O927        O  0.87166724  0.18716693  0.67645614    -0.74200
O928        O  0.92178801  0.19482729  0.70940093    -0.81000
O929        O  0.83878707  0.12051085  0.74683358    -0.82700
O930        O  0.95325738  0.18556260  0.65646602    -0.78300
O931        O  0.85935067  0.15683042  0.76365189    -0.90000
O932        O  0.86791104  0.17460756  0.59704724    -0.75900
O933        O  0.91499342  0.15774781  0.63860697    -0.85400
O934        O  0.86977121  0.13410112  0.66854701    -0.85100
O935        O  0.93862494  0.13487293  0.72861138    -0.71900
O936        O  0.89760789  0.11386825  0.75423703    -0.84000
Zr937      Zr  0.92457319  0.07433683  0.62440870     2.26400
Zr938      Zr  0.95511737  0.13886232  0.64729760     2.06300
Zr939      Zr  0.86770216  0.09317144  0.70325694     2.10000
Zr940      Zr  0.88687580  0.13460920  0.58808597     1.78800
O941        O  0.85838936  0.07053336  0.77940702    -0.92800
O942        O  0.90402462  0.15978175  0.52060506    -0.40600
O943        O  0.88387777  0.09324373  0.62064512    -0.77200
O944        O  0.92738176  0.11646448  0.59265291    -0.95900
O945        O  0.95444802  0.09539929  0.67468364    -0.89200
O946        O  0.90689484  0.07128047  0.70441601    -0.92100
C947        C  0.86373471  0.18978953  0.63181877     1.01700
C948        C  0.84001410  0.14262064  0.76472765     1.14600
C949        C  0.94013125  0.20135397  0.68161640     1.05400
O950        O  0.98324480  0.16341208  0.59511682    -0.94200
O951        O  0.97823641  0.11731648  0.58392153    -0.90000
O952        O  0.96211939  0.07791984  0.57529873    -0.83100
C953        C  0.97773744  0.09546989  0.56491816     1.12000
O954        O  0.95070002  0.10612503  0.83394170    -0.96200
Zr955      Zr  0.93710253  0.09051623  0.75441006     1.88900
O956        O  0.94275276  0.03638953  0.65967781    -0.72900
O957        O  0.99174779  0.13894565  0.70117915    -0.52100
O958        O  0.98249459  0.08803821  0.76553938    -0.96800
O959        O  0.91751963  0.06939060  0.82447232    -0.54000
O960        O  0.94591668  0.04414916  0.74130993    -0.73400
C961        C  0.94687233  0.02906204  0.70398476     0.99000
O962        O  0.92357074  0.05575251  0.54289709    -0.62200
O963        O  0.82563562  0.08784006  0.66923582    -0.57000
O964        O  0.89110932  0.04402754  0.61978897    -0.93700
O965        O  0.85832763  0.05263737  0.67084857    -0.92100
O966        O  0.84291719  0.12821133  0.56615217    -0.92500
O967        O  0.88156282  0.11484719  0.50844004    -0.91200
C968        C  0.86972463  0.03926521  0.63936505     1.17800
H969        H  0.85330146  0.14168105  0.66775367     0.33800
H970        H  0.93353928  0.11654965  0.55930732     0.44600
H971        H  0.90360524  0.05418893  0.71461003     0.38100
H972        H  0.94896414  0.14412252  0.75112853     0.34600
H973        H  0.91334079  0.17343468  0.53698348     0.26400
H974        H  0.00419983  0.12830164  0.68423818     0.32300
H975        H  0.98527041  0.07218622  0.78412683     0.38300
H976        H  0.84031208  0.10985916  0.56907019     0.32700
H977        H  0.81492050  0.08348559  0.69782757     0.31600
H978        H  0.85309674  0.05359595  0.76906586     0.33300
H979        H  0.93111663  0.05904210  0.83924072     0.32200
H980        H  0.89033569  0.09855897  0.51189627     0.36200
H981        H  0.92673846  0.03766080  0.54874810     0.29000
H982        H  0.90155867  0.16284745  0.82328471     0.33200
H983        H  0.94192013  0.12238694  0.83719540     0.36100
H984        H  0.82019379  0.10490768  0.65918793     0.28700
H985        H  0.90580451  0.05664863  0.53207207     0.41500
H986        H  0.97267869  0.16885156  0.56689766     0.31600
H987        H  0.91730642  0.14939180  0.50561251     0.39200
H988        H  0.90593945  0.05702141  0.80978899     0.31100
H989        H  0.99860550  0.15616610  0.69817062     0.31100
H990        H  0.89342724  0.18891826  0.80110753     0.31400
Zr991      Zr  0.89539742  0.32599383  0.69293144     2.17500
O992        O  0.88102933  0.30884236  0.61496241    -0.51000
O993        O  0.87597063  0.29688773  0.75417401    -0.74200
O994        O  0.91739979  0.28627793  0.67724354    -0.81000
O995        O  0.83876579  0.36140010  0.73524163    -0.82700
O996        O  0.95885818  0.29375712  0.69096415    -0.78300
O997        O  0.85041214  0.32799007  0.68940695    -0.90000
O998        O  0.89820826  0.30026736  0.82515944    -0.75900
O999        O  0.93156607  0.31839387  0.74289682    -0.85400
O1000       O  0.88379003  0.34455430  0.76947509    -0.85100
O1001       O  0.92875737  0.34857264  0.65035790    -0.71900
O1002       O  0.89125233  0.36904310  0.67516408    -0.84000
Zr1003     Zr  0.94704572  0.40334275  0.75868567     2.26400
Zr1004     Zr  0.96496399  0.33996182  0.70112163     2.06300
Zr1005     Zr  0.87655994  0.38663320  0.74475319     2.10000
Zr1006     Zr  0.92145515  0.33887271  0.81641082     1.78800
O1007       O  0.85084487  0.41299437  0.69077146    -0.92800
O1008       O  0.95073614  0.30624485  0.84325928    -0.40600
O1009       O  0.91732271  0.37091881  0.75469833    -0.77200
O1010       O  0.95675938  0.35991207  0.78044251    -0.95900
O1011       O  0.95892028  0.38477939  0.68352148    -0.89200
O1012       O  0.90970360  0.41239054  0.71294758    -0.92100
C1013       C  0.88041340  0.29096414  0.79961316     1.01700
C1014       C  0.83408035  0.34138700  0.71129489     1.14600
C1015       C  0.94033448  0.27879192  0.68148082     1.05400
O1016       O  0.00421538  0.31639994  0.70392164    -0.94200
O1017       O  0.00122537  0.35680434  0.74372362    -0.90000
O1018       O  0.98770663  0.39457228  0.72480913    -0.83100
C1019       C  0.00243469  0.38042577  0.74892555     1.12000
O1020       O  0.91349446  0.38164813  0.55233402    -0.96200
Zr1021     Zr  0.92197947  0.39396222  0.63686140     1.88900
O1022       O  0.94843766  0.44580846  0.72137882    -0.72900
O1023       O  0.98018707  0.34349137  0.61689492    -0.52100
O1024       O  0.95924307  0.39842437  0.58495204    -0.96800
O1025       O  0.88837149  0.41784070  0.59705721    -0.54000
O1026       O  0.93533722  0.43972825  0.64321996    -0.73400
C1027       C  0.94394175  0.45422383  0.67763166     0.99000
O1028       O  0.97097832  0.42675247  0.81944313    -0.62200
O1029       O  0.85688763  0.41740887  0.79839232    -0.57000
O1030       O  0.92694722  0.40353352  0.83809097    -0.93700
O1031       O  0.88585054  0.39232084  0.83006152    -0.92100
O1032       O  0.89240529  0.34822439  0.88301502    -0.92500
O1033       O  0.94042980  0.35888529  0.88759426    -0.91200
C1034       C  0.90518739  0.39832797  0.85521144     1.17800
H1035       H  0.86924546  0.33801226  0.78651681     0.33800
H1036       H  0.97000389  0.35856669  0.80452654     0.44600
H1037       H  0.90451753  0.42971357  0.71145193     0.38100
H1038       H  0.93111615  0.34090522  0.61894233     0.34600
H1039       H  0.94424380  0.30047335  0.87555508     0.26400
H1040       H  0.99513154  0.35448762  0.61908885     0.32300
H1041       H  0.97031681  0.41069751  0.60141355     0.38300
H1042       H  0.87969076  0.33467556  0.88264961     0.32700
H1043       H  0.86366009  0.43387921  0.78769061     0.31600
H1044       H  0.85774446  0.43011439  0.69442911     0.33300
H1045       H  0.88612421  0.43284974  0.61772677     0.32200
H1046       H  0.95707514  0.35080240  0.89179139     0.36200
H1047       H  0.95977299  0.44055909  0.82970967     0.29000
H1048       H  0.87567559  0.29146321  0.62290239     0.33200
H1049       H  0.91766701  0.39649361  0.53162774     0.36100
H1050       H  0.83893117  0.41789220  0.78858036     0.28700
H1051       H  0.97243075  0.41563141  0.84874142     0.41500
H1052       H  0.00314357  0.30598806  0.73428037     0.31600
H1053       H  0.94781196  0.29194748  0.82105653     0.39200
H1054       H  0.87304520  0.40773036  0.60267010     0.31100
H1055       H  0.98706451  0.32671392  0.60937511     0.31100
H1056       H  0.89648438  0.30688038  0.59511891     0.31400
Zr1057     Zr  0.66668698  0.24001440  0.04190778     2.17500
O1058       O  0.65353713  0.20276364  0.08790178    -0.51000
O1059       O  0.64404877  0.26927321  0.09013508    -0.74200
O1060       O  0.68600155  0.24191890  0.12387071    -0.81000
O1061       O  0.61877961  0.23513779  0.93784582    -0.82700
O1062       O  0.72709314  0.25333056  0.11438870    -0.78300
O1063       O  0.62438926  0.22594034  0.01921596    -0.90000
O1064       O  0.65997428  0.30776394  0.07098240    -0.75900
O1065       O  0.69861815  0.27096585  0.04830375    -0.85400
O1066       O  0.65442187  0.27383566  0.98831164    -0.85100
O1067       O  0.70577978  0.21995451  0.02290777    -0.71900
O1068       O  0.66443798  0.22319951  0.96103059    -0.84000
Zr1069     Zr  0.72303107  0.26664521  0.89011634     2.26400
Zr1070     Zr  0.73754327  0.25213178  0.02580965     2.06300
Zr1071     Zr  0.65429623  0.25764063  0.90666810     2.10000
Zr1072     Zr  0.68656311  0.30451035  0.99659871     1.78800
O1073       O  0.62131880  0.24392948  0.85067275    -0.92800
O1074       O  0.71317442  0.32751675  0.05359396    -0.40600
O1075       O  0.68578504  0.28909105  0.91315581    -0.77200
O1076       O  0.72567522  0.28566494  0.97042497    -0.95900
O1077       O  0.73458695  0.23412899  0.94642284    -0.89200
O1078       O  0.69145127  0.23536135  0.88511012    -0.92100
C1079       C  0.64616335  0.29276200  0.09692705     1.01700
C1080       C  0.61170671  0.22572582  0.97880572     1.14600
C1081       C  0.70757308  0.24849474  0.14112814     1.05400
O1082       O  0.76652416  0.28115241  0.06474811    -0.94200
O1083       O  0.77709528  0.25521807  0.97717553    -0.90000
O1084       O  0.76765004  0.27004338  0.90024924    -0.83100
C1085       C  0.78319089  0.26269404  0.93328302     1.12000
O1086       O  0.68417334  0.16683812  0.98314051    -0.96200
Zr1087     Zr  0.70297004  0.20302821  0.94206806     1.88900
O1088       O  0.74518258  0.23391894  0.84561098    -0.72900
O1089       O  0.75992548  0.21569252  0.05871994    -0.52100
O1090       O  0.73467948  0.17517279  0.97738406    -0.96800
O1091       O  0.67994267  0.17621615  0.88572935    -0.54000
O1092       O  0.73273890  0.19618059  0.87732919    -0.73400
C1093       C  0.74593915  0.20986449  0.84844265     0.99000
O1094       O  0.73700160  0.30512059  0.84936201    -0.62200
O1095       O  0.63146667  0.29718999  0.90182783    -0.57000
O1096       O  0.70401585  0.26931953  0.80804640    -0.93700
O1097       O  0.66226588  0.26202048  0.81858900    -0.92100
O1098       O  0.65408581  0.33322474  0.96724322    -0.92500
O1099       O  0.70185564  0.34509330  0.96768200    -0.91200
C1100       C  0.68155969  0.26623890  0.79148263     1.17800
H1101       H  0.63807042  0.28032326  0.99650349     0.33800
H1102       H  0.73867916  0.29826630  0.97011888     0.44600
H1103       H  0.69039031  0.22809043  0.85292758     0.38100
H1104       H  0.70926279  0.20684744  0.04676961     0.34600
H1105       H  0.70259755  0.33053898  0.08286797     0.26400
H1106       H  0.77710853  0.22186826  0.06567722     0.32300
H1107       H  0.75068708  0.18452302  0.97419795     0.38300
H1108       H  0.63913154  0.32933787  0.98758057     0.32700
H1109       H  0.63141860  0.30170588  0.86636881     0.31600
H1110       H  0.60851288  0.25743492  0.85083811     0.33300
H1111       H  0.68536596  0.18157419  0.85241685     0.32200
H1112       H  0.71143219  0.34125454  0.93753265     0.36200
H1113       H  0.72142980  0.31503669  0.84436400     0.29000
H1114       H  0.64255750  0.20918309  0.11433162     0.33200
H1115       H  0.67360607  0.17400775  0.00941620     0.36100
H1116       H  0.61380088  0.29274714  0.90928656     0.28700
H1117       H  0.74633588  0.31432963  0.87499929     0.41500
H1118       H  0.77961667  0.27031122  0.07991646     0.31600
H1119       H  0.72583341  0.31513958  0.06499786     0.39200
H1120       H  0.66227961  0.18196517  0.88802407     0.31100
H1121       H  0.75253244  0.21239090  0.09155533     0.31100
H1122       H  0.66881185  0.19669689  0.10513603     0.31400
Zr1123     Zr  0.67236130  0.28547522  0.38700693     2.17500
O1124       O  0.67702302  0.32329842  0.33659929    -0.51000
O1125       O  0.63858592  0.26661215  0.34083508    -0.74200
O1126       O  0.68996383  0.27390659  0.30674404    -0.81000
O1127       O  0.63465723  0.31645512  0.48989554    -0.82700
O1128       O  0.72287890  0.24723209  0.32014752    -0.78300
O1129       O  0.64083805  0.31721283  0.40681324    -0.90000
O1130       O  0.63445010  0.22668340  0.37029953    -0.75900
O1131       O  0.68716241  0.24355621  0.38697059    -0.85400
O1132       O  0.64694504  0.26300402  0.44541035    -0.85100
O1133       O  0.71640358  0.28721570  0.40694464    -0.71900
O1134       O  0.67852683  0.30431538  0.46561842    -0.84000
Zr1135     Zr  0.71185670  0.24167421  0.54449626     2.26400
Zr1136     Zr  0.73061835  0.24437315  0.40947449     2.06300
Zr1137     Zr  0.65462044  0.28041596  0.52491627     2.10000
Zr1138     Zr  0.66165909  0.22096476  0.44313310     1.78800
O1139       O  0.63329031  0.30923304  0.57979456    -0.92800
O1140       O  0.67452483  0.18682277  0.39008207    -0.40600
O1141       O  0.66818781  0.23801698  0.52407348    -0.77200
O1142       O  0.70546544  0.22093645  0.46726436    -0.95900
O1143       O  0.73604081  0.26463121  0.48588310    -0.89200
O1144       O  0.69765299  0.28391817  0.54462119    -0.92100
C1145       C  0.62881374  0.24468952  0.34017968     1.01700
C1146       C  0.63106343  0.32542052  0.44682901     1.14600
C1147       C  0.70745811  0.25915213  0.29159964     1.05400
O1148       O  0.73974127  0.20080861  0.39039523    -0.94200
O1149       O  0.76752249  0.23661001  0.46310414    -0.90000
O1150       O  0.75297216  0.22349750  0.53772982    -0.83100
C1151       C  0.77073131  0.22836128  0.50753073     1.12000
O1152       O  0.72618293  0.34407578  0.43460191    -0.96200
Zr1153     Zr  0.72191982  0.30647729  0.48563632     1.88900
O1154       O  0.73896505  0.26521587  0.59861233    -0.72900
O1155       O  0.76863940  0.25855977  0.36752665    -0.52100
O1156       O  0.76583364  0.31525214  0.46681678    -0.96800
O1157       O  0.70763321  0.34448987  0.52586628    -0.54000
O1158       O  0.74436981  0.30381949  0.56309767    -0.73400
C1159       C  0.74755001  0.28765885  0.59784482     0.99000
O1160       O  0.70951268  0.20078617  0.58519637    -0.62200
O1161       O  0.61530262  0.25721770  0.53092973    -0.57000
O1162       O  0.69373937  0.24725627  0.62517626    -0.93700
O1163       O  0.66175686  0.27503464  0.61418560    -0.92100
O1164       O  0.61992779  0.20992173  0.47344487    -0.92500
O1165       O  0.65891865  0.18023774  0.48416724    -0.91200
C1166       C  0.67672095  0.26192286  0.64155088     1.17800
H1167       H  0.62929869  0.26414504  0.43720149     0.33800
H1168       H  0.71148430  0.20389620  0.46981243     0.44600
H1169       H  0.69933484  0.29201097  0.57601513     0.38100
H1170       H  0.72537312  0.29661493  0.38190396     0.34600
H1171       H  0.65880645  0.18114419  0.37414768     0.26400
H1172       H  0.77074925  0.24719292  0.33931596     0.32300
H1173       H  0.77349869  0.29855660  0.46194025     0.38300
H1174       H  0.60802489  0.21673948  0.44864061     0.32700
H1175       H  0.61270878  0.25451338  0.56665583     0.31600
H1176       H  0.61735667  0.30078825  0.58888609     0.33300
H1177       H  0.70942552  0.34088242  0.56148483     0.32200
H1178       H  0.66636279  0.18291227  0.51710763     0.36200
H1179       H  0.69160686  0.19884361  0.59451482     0.29000
H1180       H  0.66795604  0.31961922  0.30562852     0.33200
H1181       H  0.70898270  0.34741651  0.42207512     0.36100
H1182       H  0.60216733  0.26944574  0.52104728     0.28700
H1183       H  0.71198998  0.18854318  0.55857287     0.41500
H1184       H  0.74566674  0.20137027  0.35592988     0.31600
H1185       H  0.68423793  0.19491395  0.36321743     0.39200
H1186       H  0.68923204  0.34496551  0.52023951     0.31100
H1187       H  0.76421686  0.27499244  0.35257037     0.31100
H1188       H  0.69498996  0.32374339  0.32726445     0.31400
Zr1189     Zr  0.39772508  0.99640212  0.37305166     2.17500
O1190       O  0.41071563  0.96720193  0.30994205    -0.51000
O1191       O  0.43739630  0.99814732  0.41651145    -0.74200
O1192       O  0.43338234  0.01882084  0.33813002    -0.81000
O1193       O  0.36140583  0.94629192  0.44752662    -0.82700
O1194       O  0.42063742  0.05949182  0.34168353    -0.78300
O1195       O  0.39956223  0.95618301  0.41402187    -0.90000
O1196       O  0.43117019  0.03033304  0.46891868    -0.75900
O1197       O  0.39918957  0.03841100  0.39949636    -0.85400
O1198       O  0.37837071  0.99607018  0.45214800    -0.85100
O1199       O  0.37702506  0.02143531  0.31085561    -0.71900
O1200       O  0.35538857  0.98191173  0.36066534    -0.84000
Zr1201     Zr  0.31540798  0.04827492  0.40849796     2.26400
Zr1202     Zr  0.37585389  0.06331896  0.34259189     2.06300
Zr1203     Zr  0.33516381  0.98332118  0.44001569     2.10000
Zr1204     Zr  0.38362311  0.03747603  0.47893171     1.78800
O1205       O  0.31385811  0.94375429  0.42470613    -0.92800
O1206       O  0.40220930  0.07815575  0.49627050    -0.40600
O1207       O  0.33930584  0.02513360  0.46963538    -0.77200
O1208       O  0.35804759  0.06267000  0.42365955    -0.95900
O1209       O  0.33486406  0.04883633  0.33026244    -0.89200
O1210       O  0.31431661  0.00687789  0.37699385    -0.92100
C1211       C  0.44591907  0.01477619  0.44568476     1.01700
C1212       C  0.38426199  0.94137721  0.43632843     1.14600
C1213       C  0.43744804  0.04251841  0.33842597     1.05400
O1214       O  0.39774255  0.10254950  0.32520355    -0.94200
O1215       O  0.35328655  0.10226488  0.35820379    -0.90000
O1216       O  0.31659595  0.09311354  0.39760295    -0.83100
C1217       C  0.33241800  0.10840535  0.37837150     1.12000
O1218       O  0.34358594  0.97059048  0.25125174    -0.96200
Zr1219     Zr  0.33463048  0.00753054  0.29963761     1.88900
O1220       O  0.29039938  0.06096975  0.33630747    -0.72900
O1221       O  0.37050793  0.06748635  0.25391864    -0.52100
O1222       O  0.35053012  0.01844993  0.21814990    -0.96800
O1223       O  0.29843245  0.98151603  0.27922443    -0.54000
O1224       O  0.30353926  0.03800132  0.27102787    -0.73400
C1225       C  0.29051101  0.05562982  0.29021818     0.99000
O1226       O  0.29415474  0.06891983  0.47630870    -0.62200
O1227       O  0.33178943  0.97761292  0.52879181    -0.57000
O1228       O  0.27681986  0.02584099  0.43237664    -0.93700
O1229       O  0.28888797  0.98617954  0.45328720    -0.92100
O1230       O  0.39259055  0.01236493  0.55238673    -0.92500
O1231       O  0.36697429  0.05773924  0.55169354    -0.91200
C1232       C  0.27185421  0.00318937  0.44626657     1.17800
H1233       H  0.38692504  0.98545885  0.47595415     0.33800
H1234       H  0.35792517  0.07917366  0.43788040     0.44600
H1235       H  0.29765970  0.00088950  0.36982298     0.38100
H1236       H  0.38650934  0.02087021  0.28062335     0.34600
H1237       H  0.41491754  0.07464127  0.52218456     0.26400
H1238       H  0.36585157  0.08527701  0.24833173     0.32300
H1239       H  0.33585941  0.01655127  0.19606624     0.38300
H1240       H  0.41111339  0.01047615  0.55299299     0.32700
H1241       H  0.34939271  0.97613542  0.54044627     0.31600
H1242       H  0.31113608  0.93620969  0.45774695     0.33300
H1243       H  0.28348698  0.99177540  0.28708892     0.32200
H1244       H  0.34952324  0.06239672  0.54259802     0.36200
H1245       H  0.29107479  0.05551948  0.50110540     0.29000
H1246       H  0.40675111  0.97591660  0.27852556     0.33200
H1247       H  0.36214405  0.96919307  0.25211109     0.36100
H1248       H  0.32595125  0.99394377  0.54135638     0.28700
H1249       H  0.30728706  0.07947156  0.49155718     0.41500
H1250       H  0.40442269  0.10798110  0.35739131     0.31600
H1251       H  0.41222109  0.08225568  0.46661854     0.39200
H1252       H  0.29846107  0.96790309  0.30432728     0.31100
H1253       H  0.38774690  0.06602825  0.24057899     0.31100
H1254       H  0.39840301  0.95330121  0.31200626     0.31400
Zr1255     Zr  0.06638929  0.01294316  0.48982420     2.17500
O1256       O  0.03881783  0.00446275  0.55976505    -0.51000
O1257       O  0.02996257  0.99735071  0.44403043    -0.74200
O1258       O  0.03759678  0.04718299  0.50370753    -0.81000
O1259       O  0.11272432  0.96422555  0.54509011    -0.82700
O1260       O  0.04645723  0.07969752  0.45148495    -0.78300
O1261       O  0.07269088  0.97939531  0.54873037    -0.90000
O1262       O  0.04047783  0.00143685  0.36370123    -0.75900
O1263       O  0.06580970  0.03234113  0.41107680    -0.85400
O1264       O  0.08894926  0.98416849  0.43972668    -0.85100
O1265       O  0.08645355  0.05291253  0.50060791    -0.71900
O1266       O  0.10794537  0.00885990  0.52363497    -0.84000
Zr1267     Zr  0.15111865  0.04015584  0.40433054     2.26400
Zr1268     Zr  0.08776975  0.07119535  0.41948277     2.06300
Zr1269     Zr  0.13176952  0.98175198  0.47109561     2.10000
Zr1270     Zr  0.08747549  0.00392189  0.36071220     1.78800
O1271       O  0.15314254  0.94710045  0.51303794    -0.92800
O1272       O  0.07390629  0.02515616  0.28536959    -0.40600
O1273       O  0.13069756  0.00044737  0.39100697    -0.77200
O1274       O  0.11000899  0.04329176  0.36674341    -0.95900
O1275       O  0.12841857  0.06786133  0.45570588    -0.89200
O1276       O  0.15063866  0.02148757  0.48411773    -0.92100
C1277       C  0.02401339  0.99823524  0.39823689     1.01700
C1278       C  0.09077521  0.96557862  0.56429872     1.14600
C1279       C  0.03315275  0.06873697  0.48439812     1.05400
O1280       O  0.06633834  0.08266024  0.34325508    -0.94200
O1281       O  0.11577334  0.10091970  0.37909202    -0.90000
O1282       O  0.15347692  0.08154777  0.36839907    -0.83100
C1283       C  0.13869434  0.10037657  0.36467521     1.12000
O1284       O  0.10389602  0.05223999  0.61151815    -0.96200
Zr1285     Zr  0.12723678  0.04850791  0.53484438     1.88900
O1286       O  0.18329184  0.06209466  0.45097129    -0.72900
O1287       O  0.08142083  0.11230337  0.45558426    -0.52100
O1288       O  0.12466955  0.09234838  0.55848330    -0.96800
O1289       O  0.14838830  0.02746529  0.60354233    -0.54000
O1290       O  0.16905177  0.06504453  0.52962153    -0.73400
C1291       C  0.18550657  0.06846997  0.49610574     0.99000
O1292       O  0.17136705  0.03680679  0.32441480    -0.62200
O1293       O  0.12536420  0.94746928  0.41403347    -0.57000
O1294       O  0.18919230  0.01567728  0.41179171    -0.93700
O1295       O  0.17896626  0.98308632  0.46256381    -0.92100
O1296       O  0.07826724  0.96002227  0.34454560    -0.92500
O1297       O  0.10867526  0.98816605  0.28805610    -0.91200
C1298       C  0.19522557  0.99698563  0.43931566     1.17800
H1299       H  0.08081195  0.96796294  0.44001961     0.33800
H1300       H  0.11157909  0.05080961  0.33443804     0.44600
H1301       H  0.16689501  0.02026193  0.49952764     0.38100
H1302       H  0.07766056  0.06368626  0.52314241     0.34600
H1303       H  0.06518570  0.01209736  0.26625121     0.26400
H1304       H  0.09848318  0.11850227  0.46331478     0.32300
H1305       H  0.10785258  0.09796710  0.54718433     0.38300
H1306       H  0.06280135  0.96034693  0.32417342     0.32700
H1307       H  0.14219039  0.94427278  0.39999389     0.31600
H1308       H  0.16173529  0.93762793  0.48686793     0.33300
H1309       H  0.16635596  0.03219035  0.60053651     0.32200
H1310       H  0.12251891  0.00021688  0.28203884     0.36200
H1311       H  0.16948625  0.01892809  0.31573732     0.29000
H1312       H  0.02145097  0.00598617  0.54683918     0.33200
H1313       H  0.11523629  0.06119817  0.63426527     0.36100
H1314       H  0.12183990  0.93259654  0.43513048     0.28700
H1315       H  0.16000848  0.04577338  0.30128431     0.41500
H1316       H  0.04836414  0.07911457  0.34973012     0.31600
H1317       H  0.06025938  0.03654742  0.29588638     0.39200
H1318       H  0.14796540  0.00950195  0.59508285     0.31100
H1319       H  0.07558520  0.12312570  0.42794255     0.31100
H1320       H  0.04091101  0.01887958  0.58201812     0.31400
Zr1321     Zr  0.39708017  0.46808113  0.95362981     2.17500
O1322       O  0.42335105  0.47333543  0.02656988    -0.51000
O1323       O  0.43717325  0.48663539  0.92375315    -0.74200
O1324       O  0.42034409  0.42963211  0.96972122    -0.81000
O1325       O  0.34258994  0.50531033  0.01220518    -0.82700
O1326       O  0.41490622  0.40184953  0.90765335    -0.78300
O1327       O  0.38101392  0.48785213  0.02765675    -0.90000
O1328       O  0.43291489  0.49579013  0.84258944    -0.75900
O1329       O  0.40501496  0.45996490  0.86972269    -0.85400
O1330       O  0.37861566  0.50325593  0.91121653    -0.85100
O1331       O  0.37531517  0.42909318  0.93929704    -0.71900
O1332       O  0.35273717  0.46883193  0.96951686    -0.84000
Zr1333     Zr  0.32097011  0.45454215  0.82817413     2.26400
Zr1334     Zr  0.38352434  0.42160326  0.85386307     2.06300
Zr1335     Zr  0.33347859  0.50258363  0.92497775     2.10000
Zr1336     Zr  0.38700796  0.49469671  0.82699560     1.78800
O1337       O  0.31065523  0.53331924  0.97336135    -0.92800
O1338       O  0.40521736  0.48486257  0.74735133    -0.40600
O1339       O  0.34176765  0.49423602  0.84087838    -0.77200
O1340       O  0.36545517  0.45634618  0.80867923    -0.95900
O1341       O  0.34004499  0.42145647  0.87431482    -0.89200
O1342       O  0.31317185  0.46326593  0.91256685    -0.92100
C1343       C  0.44648868  0.49308480  0.88166630     1.01700
C1344       C  0.36089483  0.49930053  0.04075501     1.14600
C1345       C  0.42397327  0.40835843  0.94941585     1.05400
O1346       O  0.42089348  0.41974776  0.80242763    -0.94200
O1347       O  0.36629272  0.40677561  0.77672040    -0.90000
O1348       O  0.32986133  0.42787416  0.75955988    -0.83100
C1349       C  0.34708829  0.41192953  0.74980123     1.12000
O1350       O  0.34479255  0.41855431  0.04162749    -0.96200
Zr1351     Zr  0.33189070  0.43024163  0.95826139     1.88900
O1352       O  0.30030129  0.41369118  0.84402135    -0.72900
O1353       O  0.37609818  0.37653804  0.85382253    -0.52100
O1354       O  0.33432978  0.38473088  0.96621755    -0.96800
O1355       O  0.30324274  0.44419694  0.02225823    -0.54000
O1356       O  0.29256309  0.41642741  0.92450316    -0.73400
C1357       C  0.29192441  0.40436069  0.88462044     0.99000
O1358       O  0.30101687  0.47053120  0.75308589    -0.62200
O1359       O  0.34579154  0.54265321  0.88832421    -0.57000
O1360       O  0.28069548  0.47633731  0.84073401    -0.93700
O1361       O  0.28852419  0.50580158  0.89869401    -0.92100
O1362       O  0.39658523  0.53893574  0.83833616    -0.92500
O1363       O  0.37201360  0.52059785  0.75847116    -0.91200
C1364       C  0.27358702  0.49431302  0.86879314     1.17800
H1365       H  0.38623456  0.51872141  0.92215791     0.33800
H1366       H  0.36787102  0.45424753  0.77377828     0.44600
H1367       H  0.29573691  0.46305347  0.92253095     0.38100
H1368       H  0.37970579  0.41517516  0.96063858     0.34600
H1369       H  0.41762209  0.49835794  0.74101718     0.26400
H1370       H  0.39238506  0.36911045  0.84416459     0.32300
H1371       H  0.31913421  0.37992464  0.98508586     0.38300
H1372       H  0.41165547  0.54207439  0.81781036     0.32700
H1373       H  0.33027747  0.54924373  0.87260818     0.31600
H1374       H  0.30399654  0.54577617  0.94937013     0.33300
H1375       H  0.28644820  0.43810924  0.01209647     0.32200
H1376       H  0.35346811  0.51894799  0.75904637     0.36200
H1377       H  0.29924894  0.48881783  0.75806186     0.29000
H1378       H  0.44080908  0.47027534  0.01561286     0.33200
H1379       H  0.33173144  0.40691149  0.05419326     0.36100
H1380       H  0.34886459  0.55382566  0.91648893     0.28700
H1381       H  0.31404071  0.46938124  0.72725285     0.41500
H1382       H  0.41741143  0.40621745  0.77877138     0.31600
H1383       H  0.41556712  0.46972351  0.75368998     0.39200
H1384       H  0.30234999  0.46262538  0.01788915     0.31100
H1385       H  0.37407830  0.37182163  0.88893609     0.31100
H1386       H  0.41944978  0.45882281  0.04839409     0.31400
Zr1387     Zr  0.06498879  0.48053204  0.84234156     2.17500
O1388       O  0.03098576  0.48931728  0.78427279    -0.51000
O1389       O  0.02993176  0.50015726  0.88953622    -0.74200
O1390       O  0.03912032  0.44330393  0.83019996    -0.81000
O1391       O  0.11519326  0.51930074  0.76608261    -0.82700
O1392       O  0.04912516  0.41330747  0.88730628    -0.78300
O1393       O  0.07550736  0.50310773  0.76601412    -0.90000
O1394       O  0.04333546  0.50487149  0.96795403    -0.75900
O1395       O  0.06577203  0.46789679  0.92614813    -0.85400
O1396       O  0.09008192  0.51218315  0.88073230    -0.85100
O1397       O  0.08573493  0.44012250  0.84190962    -0.71900
O1398       O  0.10664238  0.48064481  0.80822105    -0.84000
Zr1399     Zr  0.15220222  0.45671907  0.92907194     2.26400
Zr1400     Zr  0.08682145  0.42826585  0.92738092     2.06300
Zr1401     Zr  0.13273007  0.51078213  0.84769409     2.10000
Zr1402     Zr  0.09012211  0.49916045  0.96502693     1.78800
O1403       O  0.15180622  0.54287767  0.79512867    -0.92800
O1404       O  0.07922054  0.48386624  0.04705533    -0.40600
O1405       O  0.13283012  0.49777090  0.93177153    -0.77200
O1406       O  0.11149361  0.45910800  0.96879886    -0.95900
O1407       O  0.12688459  0.42707907  0.88792791    -0.89200
O1408       O  0.15146580  0.47002738  0.84536603    -0.92100
C1409       C  0.02560054  0.50511674  0.93521090     1.01700
C1410       C  0.09390906  0.51491522  0.74548647     1.14600
C1411       C  0.03678657  0.42142756  0.84995938     1.05400
O1412       O  0.05721272  0.42719535  0.99557938    -0.94200
O1413       O  0.11195651  0.40599138  0.98806749    -0.90000
O1414       O  0.15107662  0.42339808  0.98905393    -0.83100
C1415       C  0.13462066  0.40755947  0.00367348     1.12000
O1416       O  0.10370283  0.43963993  0.72578883    -0.96200
Zr1417     Zr  0.12575168  0.44078561  0.80446137     1.88900
O1418       O  0.17596120  0.42099574  0.89454260    -0.72900
O1419       O  0.08732443  0.38269925  0.92135477    -0.52100
O1420       O  0.11510431  0.39753029  0.78518919    -0.96800
O1421       O  0.15225780  0.45511561  0.73658747    -0.54000
O1422       O  0.16227967  0.41538498  0.81619730    -0.73400
C1423       C  0.17637246  0.40985034  0.85265182     0.99000
O1424       O  0.17799812  0.46776061  0.99990894    -0.62200
O1425       O  0.12633388  0.54948569  0.89269178    -0.57000
O1426       O  0.19110114  0.47827768  0.90864537    -0.93700
O1427       O  0.17991403  0.51026990  0.85695833    -0.92100
O1428       O  0.08495605  0.54456564  0.96770008    -0.92500
O1429       O  0.11308807  0.51942409  0.03119844    -0.91200
C1430       C  0.19660402  0.49690560  0.88041766     1.17800
H1431       H  0.08237401  0.52852788  0.87574032     0.33800
H1432       H  0.11324222  0.45456424  0.00312405     0.44600
H1433       H  0.16756496  0.46936261  0.82947242     0.38100
H1434       H  0.07869667  0.42747733  0.82111676     0.34600
H1435       H  0.06877341  0.49733863  0.06113912     0.26400
H1436       H  0.07110822  0.37693935  0.93532134     0.32300
H1437       H  0.12776606  0.39227730  0.76072659     0.38300
H1438       H  0.06838369  0.54803426  0.95240441     0.32700
H1439       H  0.14343448  0.55492385  0.90226612     0.31600
H1440       H  0.16253367  0.55297211  0.81712144     0.33300
H1441       H  0.16977002  0.45209140  0.74751523     0.32200
H1442       H  0.13106356  0.51656275  0.02360897     0.36200
H1443       H  0.17755587  0.48631756  0.00062063     0.29000
H1444       H  0.01523287  0.48481107  0.80161260     0.33200
H1445       H  0.11366782  0.42833958  0.70476017     0.36100
H1446       H  0.12080675  0.56194657  0.86761887     0.28700
H1447       H  0.16812822  0.46259876  0.02915047     0.41500
H1448       H  0.06584871  0.41752670  0.02194198     0.31600
H1449       H  0.06724240  0.46999248  0.04136078     0.39200
H1450       H  0.15042446  0.47360223  0.73622863     0.31100
H1451       H  0.08609422  0.37927692  0.88572126     0.31100
H1452       H  0.03262920  0.47660931  0.75821631     0.31400
Zr1453     Zr  0.23539487  0.22289764  0.54857315     2.17500
O1454       O  0.19610526  0.21051675  0.50956337    -0.51000
O1455       O  0.26546548  0.20307568  0.49494838    -0.74200
O1456       O  0.23484856  0.24198845  0.46727860    -0.81000
O1457       O  0.23084604  0.16931963  0.64139947    -0.82700
O1458       O  0.25695661  0.27824012  0.47412965    -0.78300
O1459       O  0.22565367  0.17923152  0.56019253    -0.90000
O1460       O  0.30439750  0.20754170  0.52870722    -0.75900
O1461       O  0.27348313  0.24597110  0.54581416    -0.85400
O1462       O  0.26294984  0.20494584  0.60876835    -0.85100
O1463       O  0.22221257  0.26504093  0.56458152    -0.71900
O1464       O  0.21296278  0.22640799  0.62483173    -0.84000
Zr1465     Zr  0.26778996  0.27350387  0.70091078     2.26400
Zr1466     Zr  0.26096123  0.28762655  0.56212538     2.06300
Zr1467     Zr  0.24067195  0.20800427  0.68474237     2.10000
Zr1468     Zr  0.30046444  0.22835569  0.60685845     1.78800
O1469       O  0.20036125  0.19353037  0.71663614    -0.92800
O1470       O  0.33681873  0.24747571  0.56701722    -0.40600
O1471       O  0.27942736  0.23103349  0.68449580    -0.77200
O1472       O  0.28932893  0.27046730  0.62335269    -0.95900
O1473       O  0.24087675  0.29224815  0.64033968    -0.89200
O1474       O  0.22952699  0.25035511  0.70340651    -0.92100
C1475       C  0.28938373  0.20032081  0.49487658     1.01700
C1476       C  0.22659150  0.16369060  0.59633866     1.14600
C1477       C  0.24589315  0.26124454  0.44878626     1.05400
O1478       O  0.29191222  0.30815669  0.50951274    -0.94200
O1479       O  0.28433042  0.32132547  0.59812104    -0.90000
O1480       O  0.28859945  0.31290559  0.68030764    -0.83100
C1481       C  0.29235728  0.32621169  0.64126379     1.12000
O1482       O  0.16257251  0.25827597  0.60725661    -0.96200
Zr1483     Zr  0.20278554  0.26928736  0.64413948     1.88900
O1484       O  0.24208141  0.30416363  0.74157796    -0.72900
O1485       O  0.23109814  0.32071149  0.54109132    -0.52100
O1486       O  0.18382219  0.30556042  0.60340639    -0.96800
O1487       O  0.17077564  0.25503448  0.70220111    -0.54000
O1488       O  0.20290481  0.30167366  0.70816754    -0.73400
C1489       C  0.21910821  0.31106788  0.73808503     0.99000
O1490       O  0.30531045  0.27803597  0.75180657    -0.62200
O1491       O  0.26422653  0.17400320  0.72385282    -0.57000
O1492       O  0.26319147  0.25361280  0.78262858    -0.93700
O1493       O  0.24691050  0.21441767  0.77259857    -0.92100
O1494       O  0.31623093  0.18724627  0.63221015    -0.92500
O1495       O  0.33752946  0.23267746  0.65883013    -0.91200
C1496       C  0.25508801  0.23236399  0.79937223     1.17800
H1497       H  0.26783897  0.18805389  0.60119962     0.33800
H1498       H  0.30499263  0.27959315  0.62380683     0.44600
H1499       H  0.22141525  0.25144619  0.73518323     0.38100
H1500       H  0.21094849  0.27088467  0.53903517     0.34600
H1501       H  0.34775549  0.23320647  0.55808401     0.26400
H1502       H  0.24162891  0.33444022  0.52748898     0.32300
H1503       H  0.17069908  0.31128119  0.62648331     0.38300
H1504       H  0.32080274  0.17873367  0.60135967     0.32700
H1505       H  0.25144339  0.16115011  0.73226606     0.31600
H1506       H  0.18975163  0.19100145  0.68710882     0.33300
H1507       H  0.17604194  0.26158305  0.73453308     0.32200
H1508       H  0.33095151  0.23795625  0.69110793     0.36200
H1509       H  0.31021647  0.26070356  0.76124583     0.29000
H1510       H  0.20095015  0.20485953  0.47634681     0.33200
H1511       H  0.16679066  0.25329585  0.57328775     0.36100
H1512       H  0.27415917  0.16652859  0.69697665     0.28700
H1513       H  0.31869536  0.28353111  0.72886928     0.41500
H1514       H  0.30630058  0.29637112  0.50908211     0.31600
H1515       H  0.33030078  0.25395138  0.53518373     0.39200
H1516       H  0.17334082  0.23669638  0.70507540     0.31100
H1517       H  0.22173505  0.31434694  0.51233082     0.31100
H1518       H  0.18697355  0.22644679  0.50374968     0.31400
Zr1519     Zr  0.25603248  0.21587302  0.20369426     2.17500
O1520       O  0.29359668  0.20644491  0.25195638    -0.51000
O1521       O  0.22476069  0.19258616  0.25059487    -0.74200
O1522       O  0.25324695  0.23649245  0.28324857    -0.81000
O1523       O  0.26734269  0.16266018  0.11402400    -0.82700
O1524       O  0.23690657  0.27547679  0.27075642    -0.78300
O1525       O  0.26836133  0.17257398  0.19544999    -0.90000
O1526       O  0.18783775  0.19482561  0.20826301    -0.75900
O1527       O  0.21735408  0.23785503  0.19956127    -0.85400
O1528       O  0.23199406  0.19738852  0.13932761    -0.85100
O1529       O  0.26843208  0.25837619  0.18667351    -0.71900
O1530       O  0.28128524  0.22010860  0.13034582    -0.84000
Zr1531     Zr  0.22846685  0.26575721  0.04492690     2.26400
Zr1532     Zr  0.22921297  0.28006057  0.18254260     2.06300
Zr1533     Zr  0.25687231  0.20100057  0.06635031     2.10000
Zr1534     Zr  0.19370631  0.21955748  0.13469057     1.78800
O1535       O  0.29762299  0.18727302  0.03613888    -0.92800
O1536       O  0.15724428  0.23844688  0.17369195    -0.40600
O1537       O  0.21746175  0.22284079  0.06003804    -0.77200
O1538       O  0.20382696  0.26215082  0.11835678    -0.95900
O1539       O  0.25247753  0.28532934  0.10783552    -0.89200
O1540       O  0.26740820  0.24379348  0.04897950    -0.92100
C1541       C  0.20138747  0.18755878  0.24455069     1.01700
C1542       C  0.27000799  0.15703989  0.16005311     1.14600
C1543       C  0.24557231  0.25785220  0.29859601     1.05400
O1544       O  0.19248327  0.29168530  0.23049069    -0.94200
O1545       O  0.20713358  0.31353315  0.14130747    -0.90000
O1546       O  0.20665507  0.30503405  0.05919091    -0.83100
C1547       C  0.20100998  0.31828649  0.09670197     1.12000
O1548       O  0.32835477  0.25756632  0.16258879    -0.96200
Zr1549     Zr  0.29124796  0.26338500  0.11074016     1.88900
O1550       O  0.25527423  0.29524713  0.00389615    -0.72900
O1551       O  0.25319696  0.31706376  0.20538528    -0.52100
O1552       O  0.30498737  0.30353574  0.14310796    -0.96800
O1553       O  0.32746264  0.24701020  0.06660793    -0.54000
O1554       O  0.29414367  0.29210478  0.03861416    -0.73400
C1555       C  0.27847341  0.30109350  0.00660086     0.99000
O1556       O  0.19271092  0.26937871  0.98898689    -0.62200
O1557       O  0.23387683  0.16743325  0.02626254    -0.57000
O1558       O  0.23763791  0.24805238  0.96492711    -0.93700
O1559       O  0.25507321  0.20933875  0.97680623    -0.92100
O1560       O  0.17845158  0.17876834  0.10849233    -0.92500
O1561       O  0.15828745  0.22255031  0.07799116    -0.91200
C1562       C  0.24765487  0.22778678  0.94915187     1.17800
H1563       H  0.22755271  0.18020153  0.14663495     0.33800
H1564       H  0.18809581  0.27090049  0.11483970     0.44600
H1565       H  0.27683951  0.24534325  0.01886989     0.38100
H1566       H  0.27854714  0.26472092  0.21333717     0.34600
H1567       H  0.14476097  0.22471949  0.17621986     0.26400
H1568       H  0.25237751  0.32834852  0.17623433     0.32300
H1569       H  0.31874491  0.30909011  0.12101614     0.38300
H1570       H  0.16299926  0.17575308  0.12794774     0.32700
H1571       H  0.24586622  0.15323092  0.02515717     0.31600
H1572       H  0.30808167  0.18507684  0.06604398     0.33300
H1573       H  0.32242074  0.24717373  0.03158250     0.32200
H1574       H  0.16464732  0.23275966  0.05006499     0.36200
H1575       H  0.18915558  0.25202711  0.97844293     0.29000
H1576       H  0.28734640  0.19990059  0.28393357     0.33200
H1577       H  0.34134473  0.26899762  0.14898284     0.36100
H1578       H  0.22106183  0.16213957  0.05059737     0.28700
H1579       H  0.17826619  0.27368914  0.01017315     0.41500
H1580       H  0.17796798  0.28673898  0.20993434     0.31600
H1581       H  0.16256852  0.24133281  0.20807711     0.39200
H1582       H  0.32813135  0.22899629  0.07585302     0.31100
H1583       H  0.24269265  0.32541022  0.23037156     0.31100
H1584       H  0.30103858  0.22296910  0.25954575     0.31400
C1585       C  0.24632043  0.26322776  0.39564814    -0.12900
C1586       C  0.24631300  0.26197864  0.35111697    -0.14500
C1587       C  0.25404253  0.22864065  0.85223868    -0.12900
C1588       C  0.25154742  0.22659870  0.89650028    -0.14500
C1589       C  0.21143133  0.33114498  0.77001602    -0.18100
C1590       C  0.20674207  0.34853269  0.79680855     0.05900
C1591       C  0.20065063  0.36972016  0.82576204     0.07800
C1592       C  0.19236280  0.38848163  0.84449865    -0.19000
C1593       C  0.14295724  0.38962955  0.03880291    -0.18100
C1594       C  0.15432291  0.37417356  0.06186533     0.05900
C1595       C  0.17080125  0.35585406  0.07946044     0.07800
C1596       C  0.18535951  0.33939027  0.08854740    -0.19000
C1597       C  0.34359652  0.39784750  0.70657048    -0.18100
C1598       C  0.33548865  0.38364064  0.67693784     0.05900
C1599       C  0.32131084  0.36492029  0.65491125     0.07800
C1600       C  0.30773081  0.34774544  0.64587327    -0.19000
C1601       C  0.22360387  0.50140434  0.87303224    -0.12900
C1602       C  0.24658603  0.50025552  0.86977552    -0.14500
C1603       C  0.28647185  0.37803093  0.88937735    -0.18100
C1604       C  0.28628460  0.35730428  0.90796968     0.05900
C1605       C  0.28762156  0.33604099  0.93983511     0.07800
C1606       C  0.28648050  0.31952426  0.97070865    -0.19000
C1607       C  0.20706798  0.08201565  0.51137523    -0.18100
C1608       C  0.21848204  0.09735869  0.53414381     0.05900
C1609       C  0.22371868  0.11816262  0.56331538     0.07800
C1610       C  0.22477023  0.13798498  0.58351979    -0.19000
C1611       C  0.18909008  0.17206694  0.28010060    -0.18100
C1612       C  0.17641424  0.15786568  0.30396435     0.05900
C1613       C  0.16099505  0.13974173  0.32639676     0.07800
C1614       C  0.14921570  0.12260793  0.34368873    -0.19000
C1615       C  0.32677981  0.13436457  0.38321252    -0.18100
C1616       C  0.31978420  0.15437776  0.39742624     0.05900
C1617       C  0.30961741  0.17409646  0.42455449     0.07800
C1618       C  0.30025277  0.18753754  0.45443499    -0.19000
C1619       C  0.24518393  0.99621485  0.44982649    -0.12900
C1620       C  0.22233014  0.99351937  0.44691704    -0.14500
C1621       C  0.27314299  0.13122393  0.17478860    -0.18100
C1622       C  0.27365821  0.11121547  0.19614871     0.05900
C1623       C  0.27463042  0.08978234  0.22742359     0.07800
C1624       C  0.27869384  0.07295524  0.25652503    -0.19000
C1625       C  0.70949164  0.25167227  0.19431758    -0.12900
C1626       C  0.70936665  0.25513569  0.23864702    -0.14500
C1627       C  0.67780946  0.26627891  0.73869674    -0.12900
C1628       C  0.67564499  0.26467742  0.69439949    -0.14500
C1629       C  0.02349487  0.40349291  0.82200508    -0.12900
C1630       C  0.01515387  0.39078832  0.78985331    -0.14500
C1631       C  0.86262270  0.27566732  0.82688156    -0.18100
C1632       C  0.84714721  0.26821279  0.85643883     0.05900
C1633       C  0.82784651  0.26375904  0.89185570     0.07800
C1634       C  0.80909304  0.26235330  0.91715098    -0.19000
C1635       C  0.76109857  0.29609274  0.63960523    -0.18100
C1636       C  0.77329253  0.30680280  0.66987764     0.05900
C1637       C  0.79054056  0.32140524  0.69576846     0.07800
C1638       C  0.80890676  0.33271259  0.70800763    -0.19000
C1639       C  0.99621718  0.08993778  0.52940725    -0.12900
C1640       C  0.01256873  0.08193298  0.50410227    -0.14500
C1641       C  0.76408403  0.19673512  0.82002202    -0.18100
C1642       C  0.78017220  0.18295144  0.80518112     0.05900
C1643       C  0.79973349  0.16625796  0.79389041     0.07800
C1644       C  0.81756595  0.15354144  0.78353421    -0.19000
C1645       C  0.94510247  0.22849992  0.67787073    -0.12900
C1646       C  0.94493884  0.25156188  0.67793378    -0.14500
C1647       C  0.79561047  0.22634709  0.52779635    -0.18100
C1648       C  0.81355259  0.22486271  0.55497021     0.05900
C1649       C  0.83224919  0.22003682  0.59095488     0.07800
C1650       C  0.84756244  0.21005072  0.61749314    -0.19000
C1651       C  0.46208786  0.05197165  0.34148200    -0.12900
C1652       C  0.47667172  0.06884574  0.34506147    -0.14500
C1653       C  0.56516184  0.22057664  0.20100705    -0.18100
C1654       C  0.57854721  0.23087870  0.23057801     0.05900
C1655       C  0.59541172  0.23694389  0.26923155     0.07800
C1656       C  0.61028981  0.24020289  0.30234391    -0.19000
C1657       C  0.58828369  0.21286686  0.97707680    -0.18100
C1658       C  0.56976498  0.20055631  0.97015483     0.05900
C1659       C  0.54933562  0.18403223  0.96849767     0.07800
C1660       C  0.53409316  0.16954799  0.98424016    -0.19000
C1661       C  0.43529038  0.38990858  0.98076770    -0.12900
C1662       C  0.44153054  0.38103079  0.01980053    -0.14500
C1663       C  0.61356744  0.34539426  0.44440725    -0.18100
C1664       C  0.59526971  0.35836704  0.44515908     0.05900
C1665       C  0.57131036  0.36797807  0.43666135     0.07800
C1666       C  0.55274245  0.37148686  0.41292964    -0.19000
C1667       C  0.47224161  0.23625517  0.23425639    -0.12900
C1668       C  0.47112270  0.25947116  0.23554001    -0.14500
C1669       C  0.63145871  0.30202434  0.13702155    -0.18100
C1670       C  0.61646789  0.30362646  0.17013523     0.05900
C1671       C  0.59604490  0.30223520  0.20336665     0.07800
C1672       C  0.57579898  0.30216249  0.22340837    -0.19000
C1673       C  0.75042812  0.73396008  0.35387422    -0.12900
C1674       C  0.74711377  0.73255426  0.39805483    -0.14500
C1675       C  0.74405888  0.76990035  0.85267431    -0.12900
C1676       C  0.74317601  0.77072570  0.89725683    -0.14500
C1677       C  0.97585222  0.51262349  0.95872982    -0.12900
C1678       C  0.99883968  0.51028605  0.95048234    -0.14500
C1679       C  0.89329196  0.41859321  0.93198711    -0.12900
C1680       C  0.90105794  0.40277302  0.90571759    -0.14500
C1681       C  0.78402148  0.58392448  0.76393383    -0.18100
C1682       C  0.77887349  0.60038642  0.73455129     0.05900
C1683       C  0.77606686  0.62105337  0.70155023     0.07800
C1684       C  0.77402602  0.64051276  0.67849624    -0.19000
C1685       C  0.82914134  0.63899655  0.89620934    -0.18100
C1686       C  0.82139716  0.65922715  0.90754003     0.05900
C1687       C  0.81009855  0.67970469  0.93051707     0.07800
C1688       C  0.79972174  0.69395600  0.95754793    -0.19000
C1689       C  0.47412127  0.49669925  0.87822305    -0.12900
C1690       C  0.49724922  0.49884408  0.87905234    -0.14500
C1691       C  0.58266376  0.44970451  0.08470296    -0.12900
C1692       C  0.57002660  0.44128355  0.11757331    -0.14500
C1693       C  0.65100113  0.62919941  0.84368791    -0.18100
C1694       C  0.66308911  0.64681288  0.82921002     0.05900
C1695       C  0.67876982  0.66555352  0.80942434     0.07800
C1696       C  0.69134337  0.68028273  0.78652273    -0.19000
C1697       C  0.72356595  0.49691128  0.93531676    -0.12900
C1698       C  0.74648677  0.49913312  0.93972459    -0.14500
C1699       C  0.70548190  0.58931436  0.00438446    -0.18100
C1700       C  0.71690217  0.60418141  0.02854184     0.05900
C1701       C  0.72337547  0.62377326  0.06018368     0.07800
C1702       C  0.72544864  0.64296610  0.08248083    -0.19000
C1703       C  0.99685139  0.99666610  0.38597417    -0.12900
C1704       C  0.97374080  0.99633721  0.38129118    -0.14500
C1705       C  0.85301583  0.00647263  0.58406783    -0.12900
C1706       C  0.85707681  0.01855426  0.61961106    -0.14500
C1707       C  0.78021152  0.82705303  0.46494983    -0.18100
C1708       C  0.78138096  0.84332022  0.43347433     0.05900
C1709       C  0.78085424  0.86427950  0.40057502     0.07800
C1710       C  0.78215360  0.88471458  0.38077267    -0.19000
C1711       C  0.80201431  0.85445066  0.14665391    -0.18100
C1712       C  0.81690862  0.87094041  0.15187091     0.05900
C1713       C  0.83303849  0.88941759  0.16892206     0.07800
C1714       C  0.84244267  0.90396897  0.19629029    -0.19000
C1715       C  0.49711685  0.01453636  0.44073258    -0.12900
C1716       C  0.47406205  0.01621200  0.44811878    -0.14500
C1717       C  0.57791718  0.03781962  0.15772747    -0.12900
C1718       C  0.58881978  0.02550981  0.18822745    -0.14500
C1719       C  0.64361632  0.90066112  0.54440051    -0.18100
C1720       C  0.65493688  0.88524754  0.56764766     0.05900
C1721       C  0.67100854  0.86614905  0.58334968     0.07800
C1722       C  0.68488427  0.84886088  0.59034854    -0.19000
C1723       C  0.72262796  0.00782046  0.36356392    -0.12900
C1724       C  0.74559104  0.00647982  0.35924466    -0.14500
C1725       C  0.69142519  0.89318651  0.34872720    -0.18100
C1726       C  0.69846207  0.87380776  0.33036206     0.05900
C1727       C  0.70258707  0.85209852  0.30145543     0.07800
C1728       C  0.70598833  0.83443496  0.27455757    -0.19000
C1729       C  0.18217475  0.76953191  0.21524300    -0.12900
C1730       C  0.18226187  0.76736580  0.17102077    -0.14500
C1731       C  0.20946500  0.75932516  0.71456226    -0.12900
C1732       C  0.20937065  0.75580272  0.67046841    -0.14500
C1733       C  0.94886930  0.48168003  0.66776986    -0.12900
C1734       C  0.95449667  0.50434583  0.66382790    -0.14500
C1735       C  0.98347837  0.57291878  0.85434453    -0.12900
C1736       C  0.96726045  0.55958224  0.86930917    -0.14500
C1737       C  0.07949974  0.53165571  0.65998998    -0.12900
C1738       C  0.08990532  0.52335488  0.69593743    -0.14500
C1739       C  0.07145393  0.70918788  0.68183393    -0.18100
C1740       C  0.08448446  0.71973328  0.71195215     0.05900
C1741       C  0.10098541  0.72714183  0.75065601     0.07800
C1742       C  0.11549178  0.73218650  0.78371537    -0.19000
C1743       C  0.09507375  0.70616411  0.44711294    -0.18100
C1744       C  0.07841935  0.69158539  0.43959915     0.05900
C1745       C  0.05976719  0.67318031  0.43819336     0.07800
C1746       C  0.04542196  0.65812714  0.45487369    -0.19000
C1747       C  0.95428840  0.97865264  0.70896739    -0.12900
C1748       C  0.95160071  0.00170270  0.71061087    -0.14500
C1749       C  0.08529191  0.95101389  0.60683163    -0.12900
C1750       C  0.07317255  0.94018277  0.63733162    -0.14500
C1751       C  0.93701573  0.89425550  0.46450465    -0.12900
C1752       C  0.94567329  0.88314747  0.49921029    -0.14500
C1753       C  0.10346677  0.83366674  0.92393596    -0.18100
C1754       C  0.08341869  0.84329458  0.92970911     0.05900
C1755       C  0.05822084  0.85031429  0.92807097     0.07800
C1756       C  0.03905058  0.85366183  0.90627451    -0.19000
C1757       C  0.97305137  0.72595230  0.69418993    -0.12900
C1758       C  0.97067342  0.74901274  0.69633543    -0.14500
C1759       C  0.12612572  0.80228909  0.61233975    -0.18100
C1760       C  0.11143726  0.80141793  0.64621114     0.05900
C1761       C  0.09173875  0.79677731  0.68024402     0.07800
C1762       C  0.07187707  0.79396486  0.70117427    -0.19000
C1763       C  0.51630053  0.89308262  0.30355800    -0.12900
C1764       C  0.52334483  0.90658845  0.33549660    -0.14500
C1765       C  0.40162834  0.90179787  0.41297317    -0.12900
C1766       C  0.39293814  0.91641034  0.44107059    -0.14500
C1767       C  0.45653282  0.01200222  0.19297468    -0.12900
C1768       C  0.45188930  0.98906986  0.19217035    -0.14500
C1769       C  0.36225384  0.77854956  0.30626355    -0.18100
C1770       C  0.34570593  0.77153836  0.33365561     0.05900
C1771       C  0.32593503  0.76886456  0.36833495     0.07800
C1772       C  0.30740052  0.76959378  0.39403127    -0.19000
C1773       C  0.31324064  0.84322464  0.18412112    -0.18100
C1774       C  0.29505715  0.83379422  0.16616966     0.05900
C1775       C  0.27833568  0.82071399  0.13617021     0.07800
C1776       C  0.26646750  0.81006622  0.10531303    -0.19000
C1777       C  0.45173752  0.51236472  0.22071628    -0.12900
C1778       C  0.45395296  0.48927423  0.22176129    -0.14500
C1779       C  0.51530302  0.58502070  0.00237456    -0.12900
C1780       C  0.50008829  0.59316322  0.02987462    -0.14500
C1781       C  0.35935675  0.50732022  0.09004049    -0.12900
C1782       C  0.36292161  0.52165151  0.12254867    -0.14500
C1783       C  0.31581025  0.66452686  0.25426128    -0.18100
C1784       C  0.29846851  0.67819042  0.26222037     0.05900
C1785       C  0.28024265  0.69618071  0.27304705     0.07800
C1786       C  0.26528977  0.71040577  0.29003272    -0.19000
C1787       C  0.45001542  0.73616437  0.16600565    -0.12900
C1788       C  0.45015385  0.75918858  0.16759591    -0.14500
C1789       C  0.35332143  0.71827580  0.08711252    -0.18100
C1790       C  0.33967329  0.72900145  0.05829145     0.05900
C1791       C  0.32243889  0.73503998  0.02028351     0.07800
C1792       C  0.30478585  0.73729062  0.99261632    -0.19000
loop_ 
_geom_bond_atom_site_label_1 
_geom_bond_atom_site_label_2 
_geom_bond_distance 
_geom_bond_site_symmetry_2 
_ccdc_geom_bond_type 
Zr1           O2   2.439       .  S
Zr1           O3   2.462       .  S
Zr1           O4   2.428       .  S
Zr1           O7   2.399       .  S
Zr1           O9   2.368       .  S
Zr1          O10   2.380       .  S
Zr1          O11   2.416       .  S
Zr1          O12   2.420       .  S
O2           H58   0.991       .  S
O2           H66   0.991       .  S
O3           C23   1.288       .  A
O4           C25   1.280       .  A
O5          Zr15   2.429       .  S
O5           C24   1.282       .  A
O6          Zr14   2.505       .  S
O6           C25   1.296       .  A
O7           C24   1.277       .  A
O8          Zr16   2.385       .  S
O8           C23   1.274       .  A
O9          Zr14   2.374       .  S
O9          Zr16   2.381       .  S
O10         Zr15   2.378       .  S
O10         Zr16   2.367       .  S
O10          H45   0.964       .  S
O11         Zr14   2.389       .  S
O11         Zr31   2.449       .  S
O11          H48   0.966       .  S
O12         Zr15   2.393       .  S
O12         Zr31   2.434       .  S
Zr13         O38   2.439       .  S
Zr13         O32   2.426       .  S
Zr13         O40   2.404       .  S
Zr13         O28   2.396       .  S
Zr13         O19   2.394       .  S
Zr13         O20   2.401       .  S
Zr13         O21   2.382       .  S
Zr13         O22   2.368       .  S
Zr14         O33   2.434       .  S
Zr14         O26   2.434       .  S
Zr14         O27   2.419       .  S
Zr14         O20   2.416       .  S
Zr14         O21   2.423       .  S
Zr15         O17   2.435       .  S
Zr15         O39   2.438       .  S
Zr15         O41   2.413       .  S
Zr15         O19   2.404       .  S
Zr15         O22   2.381       .  S
Zr16         O42   2.437       .  S
Zr16         O43   2.435   1_554  S
Zr16         O18   2.437       .  S
Zr16         O19   2.387       .  S
Zr16         O20   2.359       .  S
O17          H54   0.990       .  S
O18          H49   0.991   1_554  S
O18          H63   0.989       .  S
O20          H46   0.964       .  S
O21         Zr31   2.368       .  S
O22         Zr31   2.349       .  S
O22          H47   0.965       .  S
C23        C1789   1.431       .  S
C24        C1783   1.419       .  S
C25        C1787   1.473       .  S
O26          H62   0.991       .  S
O27          C29   1.280       .  A
O28          C29   1.278       .  A
C29        C1780   1.406       .  S
O30         Zr31   2.438       .  S
O30          H59   0.991       .  S
Zr31         O34   2.436       .  S
Zr31         O35   2.438       .  S
Zr31         O36   2.539       .  S
O32          C37   1.280       .  A
O33          H50   0.990       .  S
O33          H65   0.990       .  S
O34          H51   0.989       .  S
O35          H55   0.989       .  S
O35          H64   0.991       .  S
O36          C37   1.303       .  A
C37        C1777   1.485       .  S
O38          H57   0.991       .  S
O38          H61   0.989       .  S
O39          H53   0.990       .  S
O39          H60   0.990       .  S
O40          C44   1.279       .  A
O41          C44   1.278       .  A
O42          H52   0.989       .  S
O43          H56   0.990   1_556  S
C44        C1782   1.410       .  S
Zr67         O68   2.441       .  S
Zr67         O69   2.475       .  S
Zr67         O70   2.465       .  S
Zr67         O73   2.395       .  S
Zr67         O75   2.382       .  S
Zr67         O76   2.396       .  S
Zr67         O77   2.424       .  S
Zr67         O78   2.343       .  S
O68         H124   0.991       .  S
O68         H132   0.990       .  S
O69          C89   1.290       .  A
O70          C91   1.288       .  A
O71         Zr81   2.426       .  S
O71          C90   1.279       .  A
O72         Zr80   2.502       .  S
O72          C91   1.295       .  A
O73          C90   1.277       .  A
O74         Zr82   2.410       .  S
O74          C89   1.278       .  A
O75         Zr80   2.398       .  S
O75         Zr82   2.351       .  S
O76         Zr81   2.365       .  S
O76         Zr82   2.397       .  S
O76         H111   0.965       .  S
O77         Zr80   2.409       .  S
O77         Zr97   2.465       .  S
O77         H114   0.962       .  S
O78         Zr81   2.268       .  S
O78         Zr97   2.344       .  S
Zr79        O104   2.440       .  S
Zr79         O98   2.468       .  S
Zr79        O106   2.413       .  S
Zr79         O94   2.400       .  S
Zr79         O85   2.341       .  S
Zr79         O86   2.442       .  S
Zr79         O87   2.370       .  S
Zr79         O88   2.389       .  S
Zr80         O99   2.436       .  S
Zr80         O92   2.438       .  S
Zr80         O93   2.423       .  S
Zr80         O86   2.464       .  S
Zr80         O87   2.452       .  S
Zr81         O83   2.434       .  S
Zr81        O105   2.445       .  S
Zr81        O107   2.411       .  S
Zr81         O85   2.325       .  S
Zr81         O88   2.388       .  S
Zr82        O108   2.438       .  S
Zr82        O109   2.438       .  S
Zr82         O84   2.439       .  S
Zr82         O85   2.377       .  S
Zr82         O86   2.397       .  S
O83         H120   0.990       .  S
O84         H115   0.989       .  S
O84         H129   0.991       .  S
O86         H112   0.967       .  S
O87         Zr97   2.385       .  S
O88         Zr97   2.402       .  S
O88         H113   0.967       .  S
C89        C1769   1.440       .  S
C90        C1773   1.418       .  S
C91        C1788   1.476       .  S
O92         H128   0.990       .  S
O93          C95   1.269       .  A
O94          C95   1.263       .  A
C95        C1763   1.416       .  S
O96         Zr97   2.442       .  S
O96         H125   0.991       .  S
Zr97        O100   2.445       .  S
Zr97        O101   2.437       .  S
Zr97        O102   2.553       .  S
O98         C103   1.287       .  A
O99         H116   0.991       .  S
O99         H131   0.990       .  S
O100        H117   0.990       .  S
O101        H121   0.990       .  S
O101        H130   0.989       .  S
O102        C103   1.305       .  A
C103       C1768   1.507       .  S
O104        H123   0.990       .  S
O104        H127   0.990       .  S
O105        H119   0.990       .  S
O105        H126   0.991       .  S
O106        C110   1.277       .  A
O107        C110   1.278       .  A
O108        H118   0.990       .  S
O109        H122   0.990       .  S
C110       C1765   1.423       .  S
Zr133       O134   2.438       .  S
Zr133       O135   2.454   1_655  S
Zr133       O136   2.443       .  S
Zr133       O139   2.418   1_655  S
Zr133       O141   2.397       .  S
Zr133       O142   2.417   1_655  S
Zr133       O143   2.428       .  S
Zr133       O144   2.413       .  S
O134        H190   0.990       .  S
O134        H198   0.990       .  S
O135        C155   1.276       .  A
O136        C157   1.284       .  A
O137       Zr147   2.404       .  S
O137        C156   1.277       .  A
O138       Zr146   2.538       .  S
O138        C157   1.304       .  A
O139        C156   1.282       .  A
O140       Zr148   2.397       .  S
O140        C155   1.264       .  A
O141       Zr146   2.362       .  S
O141       Zr148   2.374   1_655  S
O142       Zr147   2.372       .  S
O142       Zr148   2.398       .  S
O142        H177   0.967       .  S
O143       Zr146   2.397       .  S
O143       Zr163   2.453       .  S
O143        H180   0.958       .  S
O144       Zr147   2.385   1_655  S
O144       Zr163   2.408       .  S
Zr145       O170   2.441       .  S
Zr145       O164   2.492       .  S
Zr145       O172   2.443   1_655  S
Zr145       O160   2.405       .  S
Zr145       O151   2.378   1_655  S
Zr145       O152   2.441       .  S
Zr145       O153   2.392       .  S
Zr145       O154   2.371       .  S
Zr146       O165   2.436       .  S
Zr146       O158   2.435       .  S
Zr146       O159   2.453       .  S
Zr146       O152   2.417       .  S
Zr146       O153   2.430       .  S
Zr147       O149   2.436       .  S
Zr147       O171   2.442       .  S
Zr147       O173   2.416       .  S
Zr147       O151   2.384       .  S
Zr147       O154   2.368   1_455  S
Zr148       O174   2.437       .  S
Zr148       O175   2.438       .  S
Zr148       O150   2.440       .  S
Zr148       O151   2.364       .  S
Zr148       O152   2.383   1_455  S
O149        H186   0.990       .  S
O150        H181   0.989       .  S
O150        H195   0.990       .  S
O152        H178   0.961       .  S
O153       Zr163   2.370       .  S
O154       Zr163   2.380       .  S
O154        H179   0.961       .  S
C155       C1762   1.439       .  S
C156       C1756   1.410       .  S
C157       C1758   1.489       .  S
O158        H194   0.991       .  S
O159        C161   1.287       .  A
O160        C161   1.278       .  A
C161       C1752   1.423       .  S
O162       Zr163   2.436       .  S
O162        H191   0.991       .  S
Zr163       O166   2.434       .  S
Zr163       O167   2.437       .  S
Zr163       O168   2.503       .  S
O164        C169   1.293       .  A
O165        H182   0.990       .  S
O165        H197   0.990       .  S
O166        H183   0.990       .  S
O167        H187   0.990       .  S
O167        H196   0.990       .  S
O168        C169   1.296       .  A
C169       C1747   1.491       .  S
O170        H189   0.990   1_655  S
O170        H193   0.991   1_655  S
O171        H185   0.989       .  S
O171        H192   0.991       .  S
O172        C176   1.285       .  A
O173        C176   1.279       .  A
O174        H184   0.990       .  S
O175        H188   0.991       .  S
C176       C1750   1.417       .  S
Zr199       O200   2.440   1_455  S
Zr199       O201   2.501       .  S
Zr199       O202   2.425   1_455  S
Zr199       O205   2.389       .  S
Zr199       O207   2.363       .  S
Zr199       O208   2.393       .  S
Zr199       O209   2.416   1_455  S
Zr199       O210   2.429   1_455  S
O200        H256   0.990       .  S
O200        H264   0.991       .  S
O201        C221   1.292       .  A
O202        C223   1.280       .  A
O203       Zr213   2.434       .  S
O203        C222   1.281       .  A
O204       Zr212   2.540       .  S
O204        C223   1.304       .  A
O205        C222   1.277       .  A
O206       Zr214   2.382       .  S
O206        C221   1.267       .  A
O207       Zr212   2.369   1_455  S
O207       Zr214   2.387       .  S
O208       Zr213   2.400       .  S
O208       Zr214   2.382       .  S
O208        H243   0.967       .  S
O209       Zr212   2.388       .  S
O209       Zr229   2.454       .  S
O209        H246   0.963       .  S
O210       Zr213   2.401   1_655  S
O210       Zr229   2.429       .  S
Zr211       O236   2.421       .  S
Zr211       O230   2.459   1_455  S
Zr211       O238   2.420       .  S
Zr211       O226   2.365       .  S
Zr211       O217   2.383       .  S
Zr211       O218   2.418       .  S
Zr211       O219   2.383   1_455  S
Zr211       O220   2.370       .  S
Zr212       O231   2.432       .  S
Zr212       O224   2.433       .  S
Zr212       O225   2.443       .  S
Zr212       O218   2.415   1_655  S
Zr212       O219   2.430       .  S
Zr213       O215   2.435       .  S
Zr213       O237   2.440       .  S
Zr213       O239   2.452       .  S
Zr213       O217   2.382       .  S
Zr213       O220   2.398       .  S
Zr214       O240   2.435       .  S
Zr214       O241   2.438       .  S
Zr214       O216   2.438       .  S
Zr214       O217   2.354       .  S
Zr214       O218   2.383       .  S
O215        H252   0.990       .  S
O216        H247   0.991       .  S
O216        H261   0.989       .  S
O218        H244   0.965       .  S
O219       Zr229   2.366       .  S
O220       Zr229   2.363   1_455  S
O220        H245   0.964   1_455  S
C221       C1739   1.446       .  S
C222       C1746   1.414       .  S
C223       C1757   1.489       .  S
O224        H260   0.990   1_655  S
O225        C227   1.288       .  A
O226        C227   1.271   1_455  A
C227       C1735   1.402       .  S
O228       Zr229   2.436       .  S
O228        H257   0.990       .  S
Zr229       O232   2.435       .  S
Zr229       O233   2.437       .  S
Zr229       O234   2.541       .  S
O230        C235   1.286       .  A
O231        H248   0.991       .  S
O231        H263   0.989       .  S
O232        H249   0.990       .  S
O233        H253   0.990       .  S
O233        H262   0.990       .  S
O234        C235   1.303       .  A
C235       C1734   1.506       .  S
O236        H255   0.986       .  S
O236        H259   0.990       .  S
O237        H251   0.990       .  S
O237        H258   0.991       .  S
O238        C242   1.272       .  A
O239        C242   1.282       .  A
O240        H250   0.990       .  S
O241        H254   0.990       .  S
C242       C1737   1.425       .  S
Zr265       O266   2.436       .  S
Zr265       O267   2.419       .  S
Zr265       O268   2.453       .  S
Zr265       O271   2.448       .  S
Zr265       O273   2.373       .  S
Zr265       O274   2.391       .  S
Zr265       O275   2.407       .  S
Zr265       O276   2.394       .  S
O266        H322   0.991       .  S
O266        H330   0.988       .  S
O267        C287   1.281       .  A
O268        C289   1.289       .  A
O269       Zr279   2.369   1_556  S
O269        C288   1.271       .  A
O270       Zr278   2.450       .  S
O270        C289   1.288       .  A
O271        C288   1.288       .  A
O272       Zr280   2.473       .  S
O272        C287   1.291       .  A
O273       Zr278   2.389       .  S
O273       Zr280   2.359       .  S
O274       Zr279   2.392   1_556  S
O274       Zr280   2.373       .  S
O274        H309   0.965       .  S
O275       Zr278   2.405       .  S
O275       Zr295   2.397       .  S
O275        H312   0.965       .  S
O276       Zr279   2.404   1_556  S
O276       Zr295   2.379       .  S
Zr277       O302   2.436       .  S
Zr277       O296   2.427       .  S
Zr277       O304   2.429       .  S
Zr277       O292   2.389       .  S
Zr277       O283   2.400       .  S
Zr277       O284   2.416   1_554  S
Zr277       O285   2.379   1_554  S
Zr277       O286   2.368       .  S
Zr278       O297   2.436       .  S
Zr278       O290   2.437       .  S
Zr278       O291   2.478       .  S
Zr278       O284   2.401       .  S
Zr278       O285   2.374       .  S
Zr279       O281   2.437       .  S
Zr279       O303   2.435       .  S
Zr279       O305   2.445       .  S
Zr279       O283   2.375       .  S
Zr279       O286   2.356       .  S
Zr280       O306   2.438       .  S
Zr280       O307   2.436       .  S
Zr280       O282   2.436       .  S
Zr280       O283   2.421   1_556  S
Zr280       O284   2.420       .  S
O281        H318   0.990       .  S
O282        H313   0.990       .  S
O282        H327   0.990       .  S
O284        H310   0.966       .  S
O285       Zr295   2.358       .  S
O286       Zr295   2.376   1_554  S
O286        H311   0.965       .  S
C287       C1742   1.452       .  S
C288       C1753   1.413       .  S
C289       C1731   1.452       .  S
O290        H326   0.990       .  S
O291        C293   1.292       .  A
O292        C293   1.275   1_554  A
C293       C1792   1.433       .  S
O294       Zr295   2.434       .  S
O294        H323   0.990       .  S
Zr295       O298   2.435       .  S
Zr295       O299   2.437       .  S
Zr295       O300   2.415   1_556  S
O296        C301   1.282       .  A
O297        H314   0.989       .  S
O297        H329   0.990       .  S
O298        H315   0.990       .  S
O299        H319   0.991   1_556  S
O299        H328   0.990       .  S
O300        C301   1.280       .  A
C301       C1776   1.422       .  S
O302        H321   0.990       .  S
O302        H325   0.990       .  S
O303        H317   0.991       .  S
O303        H324   0.990       .  S
O304        C308   1.282       .  A
O305        C308   1.283       .  A
O306        H316   0.990       .  S
O307        H320   0.991   1_556  S
C308       C1730   1.441       .  S
Zr331       O332   2.437       .  S
Zr331       O333   2.385       .  S
Zr331       O334   2.453       .  S
Zr331       O337   2.454       .  S
Zr331       O339   2.374       .  S
Zr331       O340   2.394       .  S
Zr331       O341   2.400       .  S
Zr331       O342   2.383       .  S
O332        H388   0.991       .  S
O332        H396   0.989       .  S
O333        C353   1.274       .  A
O334        C355   1.288       .  A
O335       Zr345   2.383       .  S
O335        C354   1.273       .  A
O336       Zr344   2.452       .  S
O336        C355   1.288       .  A
O337        C354   1.289       .  A
O338       Zr346   2.478       .  S
O338        C353   1.291       .  A
O339       Zr344   2.386       .  S
O339       Zr346   2.357       .  S
O340       Zr345   2.395       .  S
O340       Zr346   2.380       .  S
O340        H375   0.961       .  S
O341       Zr344   2.411       .  S
O341       Zr361   2.390       .  S
O341        H378   0.965       .  S
O342       Zr345   2.402       .  S
O342       Zr361   2.367       .  S
Zr343       O368   2.436       .  S
Zr343       O362   2.427       .  S
Zr343       O370   2.428       .  S
Zr343       O358   2.398       .  S
Zr343       O349   2.401       .  S
Zr343       O350   2.414       .  S
Zr343       O351   2.379       .  S
Zr343       O352   2.376       .  S
Zr344       O363   2.436       .  S
Zr344       O356   2.436       .  S
Zr344       O357   2.476       .  S
Zr344       O350   2.399       .  S
Zr344       O351   2.371       .  S
Zr345       O347   2.438       .  S
Zr345       O369   2.435       .  S
Zr345       O371   2.447       .  S
Zr345       O349   2.376       .  S
Zr345       O352   2.378       .  S
Zr346       O372   2.435       .  S
Zr346       O373   2.436       .  S
Zr346       O348   2.437       .  S
Zr346       O349   2.423       .  S
Zr346       O350   2.421       .  S
O347        H384   0.990       .  S
O348        H379   0.991       .  S
O348        H393   0.990       .  S
O350        H376   0.966       .  S
O351       Zr361   2.362       .  S
O352       Zr361   2.381       .  S
O352        H377   0.965       .  S
C353       C1759   1.438       .  S
C354       C1743   1.420       .  S
C355       C1732   1.452       .  S
O356        H392   0.990       .  S
O357        C359   1.291       .  A
O358        C359   1.277       .  A
C359       C1772   1.440       .  S
O360       Zr361   2.438       .  S
O360        H389   0.990       .  S
Zr361       O364   2.436       .  S
Zr361       O365   2.439       .  S
Zr361       O366   2.398       .  S
O362        C367   1.282       .  A
O363        H380   0.990       .  S
O363        H395   0.990       .  S
O364        H381   0.990       .  S
O365        H385   0.990       .  S
O365        H394   0.990       .  S
O366        C367   1.276       .  A
C367       C1786   1.418       .  S
O368        H387   0.990       .  S
O368        H391   0.990       .  S
O369        H383   0.991       .  S
O369        H390   0.990       .  S
O370        C374   1.282       .  A
O371        C374   1.284       .  A
O372        H382   0.990       .  S
O373        H386   0.990       .  S
C374       C1729   1.441       .  S
Zr397       O398   2.440       .  S
Zr397       O399   2.491   1_565  S
Zr397       O400   2.434       .  S
Zr397       O403   2.458   1_565  S
Zr397       O405   2.369       .  S
Zr397       O406   2.400   1_565  S
Zr397       O407   2.420       .  S
Zr397       O408   2.395       .  S
O398        H454   0.989       .  S
O398        H462   0.992       .  S
O399        C419   1.293       .  A
O400        C421   1.284       .  A
O401       Zr411   2.436       .  S
O401        C420   1.284       .  A
O402       Zr410   2.403       .  S
O402        C421   1.275       .  A
O403        C420   1.290       .  A
O404       Zr412   2.509       .  S
O404        C419   1.296       .  A
O405       Zr410   2.394       .  S
O405       Zr412   2.362   1_565  S
O406       Zr411   2.444       .  S
O406       Zr412   2.386       .  S
O406        H441   0.964       .  S
O407       Zr410   2.401       .  S
O407       Zr427   2.364       .  S
O407        H444   0.964       .  S
O408       Zr411   2.386   1_565  S
O408       Zr427   2.355       .  S
Zr409       O434   2.439       .  S
Zr409       O428   2.491       .  S
Zr409       O436   2.434       .  S
Zr409       O424   2.400       .  S
Zr409       O415   2.423   1_565  S
Zr409       O416   2.424       .  S
Zr409       O417   2.367       .  S
Zr409       O418   2.374       .  S
Zr410       O429   2.438       .  S
Zr410       O422   2.435       .  S
Zr410       O423   2.421       .  S
Zr410       O416   2.389       .  S
Zr410       O417   2.380       .  S
Zr411       O413   2.438       .  S
Zr411       O435   2.438       .  S
Zr411       O437   2.524       .  S
Zr411       O415   2.379       .  S
Zr411       O418   2.390   1_545  S
Zr412       O438   2.438       .  S
Zr412       O439   2.435       .  S
Zr412       O414   2.438   1_545  S
Zr412       O415   2.450       .  S
Zr412       O416   2.419   1_545  S
O413        H450   0.989       .  S
O414        H445   0.990   1_565  S
O414        H459   0.990       .  S
O416        H442   0.966       .  S
O417       Zr427   2.378       .  S
O418       Zr427   2.367       .  S
O418        H443   0.965       .  S
C419       C1715   1.503       .  S
C420       C1718   1.430       .  S
C421       C1764   1.413       .  S
O422        H458   0.991       .  S
O423        C425   1.280       .  A
O424        C425   1.278       .  A
C425       C1719   1.414       .  S
O426       Zr427   2.439       .  S
O426        H455   0.990       .  S
Zr427       O430   2.438       .  S
Zr427       O431   2.440       .  S
Zr427       O432   2.381       .  S
O428        C433   1.294       .  A
O429        H446   0.990       .  S
O429        H461   0.991       .  S
O430        H447   0.990       .  S
O431        H451   0.989       .  S
O431        H460   0.991       .  S
O432        C433   1.272       .  A
C433       C1725   1.442       .  S
O434        H453   0.991       .  S
O434        H457   0.991       .  S
O435        H449   0.990       .  S
O435        H456   0.990       .  S
O436        C440   1.283   1_565  A
O437        C440   1.300       .  A
O438        H448   0.990       .  S
O439        H452   0.990       .  S
C440       C1723   1.473       .  S
Zr463       O464   2.443       .  S
Zr463       O465   2.464       .  S
Zr463       O466   2.432       .  S
Zr463       O469   2.442       .  S
Zr463       O471   2.366       .  S
Zr463       O472   2.399   1_565  S
Zr463       O473   2.415       .  S
Zr463       O474   2.380       .  S
O464        H520   0.990       .  S
O464        H528   0.991       .  S
O465        C485   1.286       .  A
O466        C487   1.284       .  A
O467       Zr477   2.423       .  S
O467        C486   1.282       .  A
O468       Zr476   2.433       .  S
O468        C487   1.282       .  A
O469        C486   1.285   1_565  A
O470       Zr478   2.500       .  S
O470        C485   1.294       .  A
O471       Zr476   2.382       .  S
O471       Zr478   2.362       .  S
O472       Zr477   2.432       .  S
O472       Zr478   2.382   1_545  S
O472        H507   0.971       .  S
O473       Zr476   2.407       .  S
O473       Zr493   2.374       .  S
O473        H510   0.963       .  S
O474       Zr477   2.382   1_565  S
O474       Zr493   2.347       .  S
Zr475       O500   2.438       .  S
Zr475       O494   2.484       .  S
Zr475       O502   2.468       .  S
Zr475       O490   2.404       .  S
Zr475       O481   2.424       .  S
Zr475       O482   2.436       .  S
Zr475       O483   2.380       .  S
Zr475       O484   2.377       .  S
Zr476       O495   2.437       .  S
Zr476       O488   2.436       .  S
Zr476       O489   2.424       .  S
Zr476       O482   2.407       .  S
Zr476       O483   2.385       .  S
Zr477       O479   2.439       .  S
Zr477       O501   2.438       .  S
Zr477       O503   2.496       .  S
Zr477       O481   2.377   1_545  S
Zr477       O484   2.386   1_545  S
Zr478       O504   2.438   1_565  S
Zr478       O505   2.435   1_565  S
Zr478       O480   2.437       .  S
Zr478       O481   2.447       .  S
Zr478       O482   2.411       .  S
O479        H516   0.990       .  S
O480        H511   0.990   1_565  S
O480        H525   0.990       .  S
O482        H508   0.964       .  S
O483       Zr493   2.378       .  S
O484       Zr493   2.369       .  S
O484        H509   0.965       .  S
C485       C1704   1.485       .  S
C486       C1705   1.410       .  S
C487       C1751   1.422       .  S
O488        H524   0.990       .  S
O489        C491   1.281       .  A
O490        C491   1.279       .  A
C491       C1714   1.412       .  S
O492       Zr493   2.435       .  S
O492        H521   0.990       .  S
Zr493       O496   2.435       .  S
Zr493       O497   2.436       .  S
Zr493       O498   2.392       .  S
O494        C499   1.287       .  A
O495        H512   0.990       .  S
O495        H527   0.990       .  S
O496        H513   0.990       .  S
O497        H517   0.991       .  S
O497        H526   0.990       .  S
O498        C499   1.265       .  A
C499       C1710   1.441       .  S
O500        H519   0.990       .  S
O500        H523   0.990       .  S
O501        H515   0.991       .  S
O501        H522   0.989       .  S
O502        C506   1.290   1_565  A
O503        C506   1.294       .  A
O504        H514   0.990       .  S
O505        H518   0.990       .  S
C506       C1724   1.474       .  S
Zr529       O530   2.441   1_556  S
Zr529       O531   2.429       .  S
Zr529       O532   2.411       .  S
Zr529       O535   2.387   1_556  S
Zr529       O537   2.367       .  S
Zr529       O538   2.387       .  S
Zr529       O539   2.397       .  S
Zr529       O540   2.399   1_556  S
O530        H586   0.991       .  S
O530        H594   0.990       .  S
O531        C551   1.279       .  A
O532        C553   1.278       .  A
O533       Zr543   2.460   1_554  S
O533        C552   1.288       .  A
O534       Zr542   2.402       .  S
O534        C553   1.276       .  A
O535        C552   1.275       .  A
O536       Zr544   2.522       .  S
O536        C551   1.299       .  A
O537       Zr542   2.395       .  S
O537       Zr544   2.353       .  S
O538       Zr543   2.433       .  S
O538       Zr544   2.380       .  S
O538        H573   0.963       .  S
O539       Zr542   2.404       .  S
O539       Zr559   2.363   1_556  S
O539        H576   0.962   1_556  S
O540       Zr543   2.408   1_554  S
O540       Zr559   2.374       .  S
Zr541       O566   2.436       .  S
Zr541       O560   2.443       .  S
Zr541       O568   2.428       .  S
Zr541       O556   2.410       .  S
Zr541       O547   2.415       .  S
Zr541       O548   2.420       .  S
Zr541       O549   2.369       .  S
Zr541       O550   2.378       .  S
Zr542       O561   2.439       .  S
Zr542       O554   2.435       .  S
Zr542       O555   2.430       .  S
Zr542       O548   2.389       .  S
Zr542       O549   2.373       .  S
Zr543       O545   2.439       .  S
Zr543       O567   2.438       .  S
Zr543       O569   2.532       .  S
Zr543       O547   2.390       .  S
Zr543       O550   2.385       .  S
Zr544       O570   2.435       .  S
Zr544       O571   2.436       .  S
Zr544       O546   2.436       .  S
Zr544       O547   2.453       .  S
Zr544       O548   2.427       .  S
O545        H582   0.990       .  S
O546        H577   0.990       .  S
O546        H591   0.991       .  S
O548        H574   0.967       .  S
O549       Zr559   2.373   1_556  S
O550       Zr559   2.360   1_556  S
O550        H575   0.964       .  S
C551       C1690   1.483       .  S
C552       C1691   1.424       .  S
C553       C1779   1.404   1_556  S
O554        H590   0.990       .  S
O555        C557   1.282       .  A
O556        C557   1.279       .  A
C557       C1693   1.427       .  S
O558       Zr559   2.434       .  S
O558        H587   0.990       .  S
Zr559       O562   2.435       .  S
Zr559       O563   2.438       .  S
Zr559       O564   2.393       .  S
O560        C565   1.285       .  A
O561        H578   0.988       .  S
O561        H593   0.992       .  S
O562        H579   0.990       .  S
O563        H583   0.991       .  S
O563        H592   0.989       .  S
O564        C565   1.276   1_554  A
C565       C1699   1.424   1_556  S
O566        H585   0.990       .  S
O566        H589   0.991       .  S
O567        H581   0.990       .  S
O567        H588   0.991       .  S
O568        C572   1.282       .  A
O569        C572   1.302       .  A
O570        H580   0.991       .  S
O571        H584   0.990       .  S
C572       C1697   1.474       .  S
Zr595       O596   2.437       .  S
Zr595       O597   2.409       .  S
Zr595       O598   2.456       .  S
Zr595       O601   2.412       .  S
Zr595       O603   2.342       .  S
Zr595       O604   2.391       .  S
Zr595       O605   2.407       .  S
Zr595       O606   2.408       .  S
O596        H652   0.990       .  S
O596        H660   0.990       .  S
O597        C617   1.278       .  A
O598        C619   1.288       .  A
O599       Zr609   2.415       .  S
O599        C618   1.280       .  A
O600       Zr608   2.399       .  S
O600        C619   1.276       .  A
O601        C618   1.283       .  A
O602       Zr610   2.594       .  S
O602        C617   1.316       .  A
O603       Zr608   2.355       .  S
O603       Zr610   2.291       .  S
O604       Zr609   2.420       .  S
O604       Zr610   2.349       .  S
O604        H639   0.966       .  S
O605       Zr608   2.409       .  S
O605       Zr625   2.397       .  S
O605        H642   0.968       .  S
O606       Zr609   2.419       .  S
O606       Zr625   2.403       .  S
Zr607       O632   2.438       .  S
Zr607       O626   2.469       .  S
Zr607       O634   2.471       .  S
Zr607       O622   2.407       .  S
Zr607       O613   2.426       .  S
Zr607       O614   2.435       .  S
Zr607       O615   2.364       .  S
Zr607       O616   2.376       .  S
Zr608       O627   2.439       .  S
Zr608       O620   2.437       .  S
Zr608       O621   2.430       .  S
Zr608       O614   2.400       .  S
Zr608       O615   2.343       .  S
Zr609       O611   2.436       .  S
Zr609       O633   2.434   1_556  S
Zr609       O635   2.495       .  S
Zr609       O613   2.387       .  S
Zr609       O616   2.385       .  S
Zr610       O636   2.436   1_556  S
Zr610       O637   2.434   1_556  S
Zr610       O612   2.435   1_556  S
Zr610       O613   2.466       .  S
Zr610       O614   2.437       .  S
O611        H648   0.991       .  S
O612        H643   0.992       .  S
O612        H657   0.989   1_554  S
O614        H640   0.969       .  S
O615       Zr625   2.369       .  S
O616       Zr625   2.369       .  S
O616        H641   0.962       .  S
C617       C1677   1.505       .  S
C618       C1679   1.409       .  S
C619       C1736   1.408       .  S
O620        H656   0.989       .  S
O621        C623   1.281       .  A
O622        C623   1.280       .  A
C623       C1685   1.424       .  S
O624       Zr625   2.439       .  S
O624        H653   0.990       .  S
Zr625       O628   2.437       .  S
Zr625       O629   2.443       .  S
Zr625       O630   2.428       .  S
O626        C631   1.291       .  A
O627        H644   0.991       .  S
O627        H659   0.989       .  S
O628        H645   0.991       .  S
O629        H649   0.991       .  S
O629        H658   0.989       .  S
O630        C631   1.282       .  A
C631       C1681   1.442       .  S
O632        H651   0.990   1_556  S
O632        H655   0.991   1_556  S
O633        H647   0.990       .  S
O633        H654   0.990       .  S
O634        C638   1.290       .  A
O635        C638   1.295       .  A
O636        H646   0.991       .  S
O637        H650   0.991       .  S
C638       C1698   1.476       .  S
Zr661       O662   2.437       .  S
Zr661       O663   2.433       .  S
Zr661       O664   2.440       .  S
Zr661       O667   2.411       .  S
Zr661       O669   2.369       .  S
Zr661       O670   2.389       .  S
Zr661       O671   2.403       .  S
Zr661       O672   2.413       .  S
O662        H718   0.990       .  S
O662        H726   0.990       .  S
O663        C683   1.283       .  A
O664        C685   1.284       .  A
O665       Zr675   2.473       .  S
O665        C684   1.292       .  A
O666       Zr674   2.450       .  S
O666        C685   1.285       .  A
O667        C684   1.280       .  A
O668       Zr676   2.407       .  S
O668        C683   1.278       .  A
O669       Zr674   2.372       .  S
O669       Zr676   2.379       .  S
O670       Zr675   2.390       .  S
O670       Zr676   2.364       .  S
O670        H705   0.965       .  S
O671       Zr674   2.385       .  S
O671       Zr691   2.414       .  S
O671        H708   0.966       .  S
O672       Zr675   2.403       .  S
O672       Zr691   2.421       .  S
Zr673       O698   2.437       .  S
Zr673       O692   2.391       .  S
Zr673       O700   2.445       .  S
Zr673       O688   2.434       .  S
Zr673       O679   2.398       .  S
Zr673       O680   2.400       .  S
Zr673       O681   2.386       .  S
Zr673       O682   2.380       .  S
Zr674       O693   2.438       .  S
Zr674       O686   2.435       .  S
Zr674       O687   2.399       .  S
Zr674       O680   2.408       .  S
Zr674       O681   2.396       .  S
Zr675       O677   2.433       .  S
Zr675       O699   2.435       .  S
Zr675       O701   2.469       .  S
Zr675       O679   2.404       .  S
Zr675       O682   2.394       .  S
Zr676       O702   2.437       .  S
Zr676       O703   2.435       .  S
Zr676       O678   2.436       .  S
Zr676       O679   2.401       .  S
Zr676       O680   2.368       .  S
O677        H714   0.990       .  S
O678        H709   0.990       .  S
O678        H723   0.990       .  S
O680        H706   0.961       .  S
O681       Zr691   2.369       .  S
O682       Zr691   2.352       .  S
O682        H707   0.964       .  S
C683       C1696   1.426       .  S
C684       C1684   1.441       .  S
C685       C1675   1.450       .  S
O686        H722   0.990       .  S
O687        C689   1.277       .  A
O688        C689   1.285       .  A
C689       C1722   1.415       .  S
O690       Zr691   2.439       .  S
O690        H719   0.991       .  S
Zr691       O694   2.436       .  S
Zr691       O695   2.440       .  S
Zr691       O696   2.486       .  S
O692        C697   1.275       .  A
O693        H710   0.990       .  S
O693        H725   0.990       .  S
O694        H711   0.990       .  S
O695        H715   0.990       .  S
O695        H724   0.990       .  S
O696        C697   1.293       .  A
C697       C1707   1.445       .  S
O698        H717   0.990       .  S
O698        H721   0.990       .  S
O699        H713   0.990       .  S
O699        H720   0.990       .  S
O700        C704   1.287       .  A
O701        C704   1.291       .  A
O702        H712   0.989       .  S
O703        H716   0.990       .  S
C704       C1674   1.452       .  S
Zr727       O728   2.436       .  S
Zr727       O729   2.425   1_554  S
Zr727       O730   2.427   1_554  S
Zr727       O733   2.403       .  S
Zr727       O735   2.366       .  S
Zr727       O736   2.384       .  S
Zr727       O737   2.403       .  S
Zr727       O738   2.412       .  S
O728        H784   0.991   1_554  S
O728        H792   0.990   1_554  S
O729        C749   1.282       .  A
O730        C751   1.282       .  A
O731       Zr741   2.453       .  S
O731        C750   1.287       .  A
O732       Zr740   2.458   1_556  S
O732        C751   1.287       .  A
O733        C750   1.279       .  A
O734       Zr742   2.413       .  S
O734        C749   1.279   1_554  A
O735       Zr740   2.369       .  S
O735       Zr742   2.378       .  S
O736       Zr741   2.388       .  S
O736       Zr742   2.354       .  S
O736        H771   0.963       .  S
O737       Zr740   2.381       .  S
O737       Zr757   2.414       .  S
O737        H774   0.967       .  S
O738       Zr741   2.399       .  S
O738       Zr757   2.423       .  S
Zr739       O764   2.442       .  S
Zr739       O758   2.401       .  S
Zr739       O766   2.466       .  S
Zr739       O754   2.437       .  S
Zr739       O745   2.395       .  S
Zr739       O746   2.406       .  S
Zr739       O747   2.392       .  S
Zr739       O748   2.379       .  S
Zr740       O759   2.436       .  S
Zr740       O752   2.433       .  S
Zr740       O753   2.397       .  S
Zr740       O746   2.417       .  S
Zr740       O747   2.397       .  S
Zr741       O743   2.434       .  S
Zr741       O765   2.436       .  S
Zr741       O767   2.442       .  S
Zr741       O745   2.402       .  S
Zr741       O748   2.397       .  S
Zr742       O768   2.436       .  S
Zr742       O769   2.436       .  S
Zr742       O744   2.436       .  S
Zr742       O745   2.400       .  S
Zr742       O746   2.363       .  S
O743        H780   0.990       .  S
O744        H775   0.990       .  S
O744        H789   0.990       .  S
O746        H772   0.964       .  S
O747       Zr757   2.369       .  S
O748       Zr757   2.365       .  S
O748        H773   0.968       .  S
C749       C1688   1.425       .  S
C750       C1702   1.426       .  S
C751       C1676   1.450       .  S
O752        H788   0.990       .  S
O753        C755   1.276       .  A
O754        C755   1.286       .  A
C755       C1711   1.414       .  S
O756       Zr757   2.440       .  S
O756        H785   0.991       .  S
Zr757       O760   2.438       .  S
Zr757       O761   2.442       .  S
Zr757       O762   2.478       .  S
O758        C763   1.276       .  A
O759        H776   0.990       .  S
O759        H791   0.990       .  S
O760        H777   0.990       .  S
O761        H781   0.990       .  S
O761        H790   0.989       .  S
O762        C763   1.292       .  A
C763       C1728   1.447       .  S
O764        H783   0.990       .  S
O764        H787   0.990       .  S
O765        H779   0.990       .  S
O765        H786   0.991       .  S
O766        C770   1.290       .  A
O767        C770   1.285       .  A
O768        H778   0.990       .  S
O769        H782   0.990       .  S
C770       C1673   1.452       .  S
Zr793       O794   2.437       .  S
Zr793       O795   2.454       .  S
Zr793       O796   2.458       .  S
Zr793       O799   2.416       .  S
Zr793       O801   2.386       .  S
Zr793       O802   2.409       .  S
Zr793       O803   2.424       .  S
Zr793       O804   2.417       .  S
O794        H850   0.991       .  S
O794        H858   0.990       .  S
O795        C815   1.280       .  A
O796        C817   1.287       .  A
O797       Zr807   2.414       .  S
O797        C816   1.278       .  A
O798       Zr806   2.537       .  S
O798        C817   1.304       .  A
O799        C816   1.282       .  A
O800       Zr808   2.415       .  S
O800        C815   1.268       .  A
O801       Zr806   2.377       .  S
O801       Zr808   2.371       .  S
O802       Zr807   2.371       .  S
O802       Zr808   2.382       .  S
O802        H837   0.965       .  S
O803       Zr806   2.401       .  S
O803       Zr823   2.452       .  S
O803        H840   0.965       .  S
O804       Zr807   2.394       .  S
O804       Zr823   2.408       .  S
Zr805       O830   2.448       .  S
Zr805       O824   2.502       .  S
Zr805       O832   2.445       .  S
Zr805       O820   2.427       .  S
Zr805       O812   2.435       .  S
Zr805       O813   2.396       .  S
Zr805       O814   2.375       .  S
Zr805       O811   2.285       .  S
Zr806       O825   2.438       .  S
Zr806       O818   2.438       .  S
Zr806       O819   2.460       .  S
Zr806       O812   2.429       .  S
Zr806       O813   2.438       .  S
Zr807       O809   2.447       .  S
Zr807       O831   2.444       .  S
Zr807       O833   2.430       .  S
Zr807       O814   2.365       .  S
Zr807       O811   2.275       .  S
Zr808       O834   2.434       .  S
Zr808       O835   2.435       .  S
Zr808       O810   2.448       .  S
Zr808       O812   2.379       .  S
Zr808       O811   2.291       .  S
O809        H846   0.990       .  S
O810        H841   0.991       .  S
O810        H855   0.990       .  S
O812        H838   0.962       .  S
O813       Zr823   2.387       .  S
O814       Zr823   2.386       .  S
O814        H839   0.961       .  S
C815       C1672   1.437       .  S
C816       C1666   1.414       .  S
C817       C1668   1.493       .  S
O818        H854   0.990       .  S
O819        C821   1.288       .  A
O820        C821   1.282       .  A
C821       C1662   1.430       .  S
O822       Zr823   2.436       .  S
O822        H851   0.990       .  S
Zr823       O826   2.437       .  S
Zr823       O827   2.437       .  S
Zr823       O828   2.499       .  S
O824        C829   1.293       .  A
O825        H842   0.989       .  S
O825        H857   0.991       .  S
O826        H843   0.990       .  S
O827        H847   0.990       .  S
O827        H856   0.990       .  S
O828        C829   1.294       .  A
C829       C1778   1.489       .  S
O830        H849   0.991       .  S
O830        H853   0.990       .  S
O831        H845   0.991       .  S
O831        H852   0.990       .  S
O832        C836   1.285       .  A
O833        C836   1.281       .  A
O834        H844   0.990       .  S
O835        H848   0.989       .  S
C836       C1692   1.430       .  S
Zr859       O860   2.439       .  S
Zr859       O861   2.483       .  S
Zr859       O862   2.430       .  S
Zr859       O865   2.395       .  S
Zr859       O867   2.364       .  S
Zr859       O868   2.389       .  S
Zr859       O869   2.416       .  S
Zr859       O870   2.426       .  S
O860        H916   0.991       .  S
O860        H924   0.990       .  S
O861        C881   1.288       .  A
O862        C883   1.281       .  A
O863       Zr873   2.437       .  S
O863        C882   1.283       .  A
O864       Zr872   2.543       .  S
O864        C883   1.305       .  A
O865        C882   1.278       .  A
O866       Zr874   2.384       .  S
O866        C881   1.267       .  A
O867       Zr872   2.375       .  S
O867       Zr874   2.387       .  S
O868       Zr873   2.389       .  S
O868       Zr874   2.369       .  S
O868        H903   0.969       .  S
O869       Zr872   2.403       .  S
O869       Zr889   2.459       .  S
O869        H906   0.967       .  S
O870       Zr873   2.401       .  S
O870       Zr889   2.421       .  S
Zr871       O896   2.434       .  S
Zr871       O890   2.481       .  S
Zr871       O898   2.389       .  S
Zr871       O886   2.383       .  S
Zr871       O877   2.389       .  S
Zr871       O878   2.448       .  S
Zr871       O879   2.390       .  S
Zr871       O880   2.379       .  S
Zr872       O891   2.434       .  S
Zr872       O884   2.435       .  S
Zr872       O885   2.460       .  S
Zr872       O878   2.421       .  S
Zr872       O879   2.443       .  S
Zr873       O875   2.435       .  S
Zr873       O897   2.440       .  S
Zr873       O899   2.446       .  S
Zr873       O877   2.390       .  S
Zr873       O880   2.395       .  S
Zr874       O900   2.435       .  S
Zr874       O901   2.435       .  S
Zr874       O876   2.437       .  S
Zr874       O877   2.365       .  S
Zr874       O878   2.370       .  S
O875        H912   0.990       .  S
O876        H907   0.991       .  S
O876        H921   0.989       .  S
O878        H904   0.967       .  S
O879       Zr889   2.362       .  S
O880       Zr889   2.368       .  S
O880        H905   0.964       .  S
C881       C1653   1.438       .  S
C882       C1660   1.417   1_554  S
C883       C1667   1.492       .  S
O884        H920   0.990       .  S
O885        C887   1.285       .  A
O886        C887   1.255       .  A
C887       C1652   1.412       .  S
O888       Zr889   2.437       .  S
O888        H917   0.990       .  S
Zr889       O892   2.434       .  S
Zr889       O893   2.437       .  S
Zr889       O894   2.527       .  S
O890        C895   1.290       .  A
O891        H908   0.989       .  S
O891        H923   0.990       .  S
O892        H909   0.990       .  S
O893        H913   0.991       .  S
O893        H922   0.989       .  S
O894        C895   1.300       .  A
C895       C1767   1.506       .  S
O896        H915   0.987       .  S
O896        H919   0.991       .  S
O897        H911   0.990       .  S
O897        H918   0.991       .  S
O898        C902   1.276       .  A
O899        C902   1.283       .  A
O900        H910   0.990       .  S
O901        H914   0.991       .  S
C902       C1717   1.419       .  S
Zr925       O926   2.436       .  S
Zr925       O927   2.471       .  S
Zr925       O928   2.425       .  S
Zr925       O931   2.405       .  S
Zr925       O933   2.370       .  S
Zr925       O934   2.377       .  S
Zr925       O935   2.425       .  S
Zr925       O936   2.428       .  S
O926        H982   0.990       .  S
O926        H990   0.990       .  S
O927        C947   1.290       .  A
O928        C949   1.281       .  A
O929       Zr939   2.438       .  S
O929        C948   1.283       .  A
O930       Zr938   2.508       .  S
O930        C949   1.296       .  A
O931        C948   1.278       .  A
O932       Zr940   2.375       .  S
O932        C947   1.272       .  A
O933       Zr938   2.369       .  S
O933       Zr940   2.383       .  S
O934       Zr939   2.370       .  S
O934       Zr940   2.371       .  S
O934        H969   0.965       .  S
O935       Zr938   2.387       .  S
O935       Zr955   2.460       .  S
O935        H972   0.963       .  S
O936       Zr939   2.387       .  S
O936       Zr955   2.441       .  S
Zr937       O962   2.440       .  S
Zr937       O956   2.428       .  S
Zr937       O964   2.408       .  S
Zr937       O952   2.410       .  S
Zr937       O943   2.389       .  S
Zr937       O944   2.402       .  S
Zr937       O945   2.384       .  S
Zr937       O946   2.375       .  S
Zr938       O957   2.435       .  S
Zr938       O950   2.435       .  S
Zr938       O951   2.421       .  S
Zr938       O944   2.418       .  S
Zr938       O945   2.426       .  S
Zr939       O941   2.436       .  S
Zr939       O963   2.437       .  S
Zr939       O965   2.397       .  S
Zr939       O943   2.407       .  S
Zr939       O946   2.388       .  S
Zr940       O966   2.436       .  S
Zr940       O967   2.436       .  S
Zr940       O942   2.439       .  S
Zr940       O943   2.372       .  S
Zr940       O944   2.363       .  S
O941        H978   0.990       .  S
O942        H973   0.991       .  S
O942        H987   0.989       .  S
O944        H970   0.965       .  S
O945       Zr955   2.369       .  S
O946       Zr955   2.347       .  S
O946        H971   0.966       .  S
C947       C1650   1.431       .  S
C948       C1644   1.427       .  S
C949       C1645   1.474       .  S
O950        H986   0.991       .  S
O951        C953   1.281       .  A
O952        C953   1.281       .  A
C953       C1639   1.413       .  S
O954       Zr955   2.436       .  S
O954        H983   0.990       .  S
Zr955       O958   2.435       .  S
Zr955       O959   2.437       .  S
Zr955       O960   2.546       .  S
O956        C961   1.280       .  A
O957        H974   0.990   1_655  S
O957        H989   0.991       .  S
O958        H975   0.990       .  S
O959        H979   0.991       .  S
O959        H988   0.990       .  S
O960        C961   1.304       .  A
C961       C1748   1.489       .  S
O962        H981   0.990       .  S
O962        H985   0.990       .  S
O963        H977   0.990       .  S
O963        H984   0.990       .  S
O964        C968   1.281       .  A
O965        C968   1.275       .  A
O966        H976   0.991       .  S
O967        H980   0.989       .  S
C968       C1706   1.405       .  S
Zr991       O992   2.441       .  S
Zr991       O993   2.489       .  S
Zr991       O994   2.462       .  S
Zr991       O997   2.396       .  S
Zr991       O999   2.384       .  S
Zr991      O1000   2.398       .  S
Zr991      O1001   2.431       .  S
Zr991      O1002   2.350       .  S
O992       H1048   0.991       .  S
O992       H1056   0.990       .  S
O993       C1013   1.293       .  A
O994       C1015   1.288       .  A
O995      Zr1005   2.434       .  S
O995       C1014   1.282       .  A
O996      Zr1004   2.504       .  S
O996       C1015   1.295       .  A
O997       C1014   1.277       .  A
O998      Zr1006   2.411       .  S
O998       C1013   1.277       .  A
O999      Zr1004   2.397       .  S
O999      Zr1006   2.353       .  S
O1000     Zr1005   2.366       .  S
O1000     Zr1006   2.390       .  S
O1000      H1035   0.965       .  S
O1001     Zr1004   2.407       .  S
O1001     Zr1021   2.470       .  S
O1001      H1038   0.960       .  S
O1002     Zr1005   2.263       .  S
O1002     Zr1021   2.344       .  S
Zr1003     O1028   2.440       .  S
Zr1003     O1022   2.471       .  S
Zr1003     O1030   2.411       .  S
Zr1003     O1018   2.400       .  S
Zr1003     O1009   2.346       .  S
Zr1003     O1010   2.438       .  S
Zr1003     O1011   2.369       .  S
Zr1003     O1012   2.387       .  S
Zr1004     O1023   2.436       .  S
Zr1004     O1016   2.437   1_655  S
Zr1004     O1017   2.426   1_655  S
Zr1004     O1010   2.457       .  S
Zr1004     O1011   2.453       .  S
Zr1005     O1007   2.437       .  S
Zr1005     O1029   2.446       .  S
Zr1005     O1031   2.394       .  S
Zr1005     O1009   2.338       .  S
Zr1005     O1012   2.391       .  S
Zr1006     O1032   2.439       .  S
Zr1006     O1033   2.439       .  S
Zr1006     O1008   2.439       .  S
Zr1006     O1009   2.390       .  S
Zr1006     O1010   2.392       .  S
O1007      H1044   0.990       .  S
O1008      H1039   0.990       .  S
O1008      H1053   0.991       .  S
O1010      H1036   0.963       .  S
O1011     Zr1021   2.384       .  S
O1012     Zr1021   2.394       .  S
O1012      H1037   0.964       .  S
C1013      C1631   1.449       .  S
C1014      C1638   1.419       .  S
C1015      C1646   1.477       .  S
O1016      H1052   0.991       .  S
O1017      C1019   1.271       .  A
O1018      C1019   1.264   1_655  A
C1019      C1630   1.419       .  S
O1020     Zr1021   2.440       .  S
O1020      H1049   0.991       .  S
Zr1021     O1024   2.445       .  S
Zr1021     O1025   2.438       .  S
Zr1021     O1026   2.550       .  S
O1022      C1027   1.288       .  A
O1023      H1040   0.990       .  S
O1023      H1055   0.990       .  S
O1024      H1041   0.991       .  S
O1025      H1045   0.991       .  S
O1025      H1054   0.988       .  S
O1026      C1027   1.304       .  A
C1027      C1733   1.508       .  S
O1028      H1047   0.990       .  S
O1028      H1051   0.990       .  S
O1029      H1043   0.990       .  S
O1029      H1050   0.991       .  S
O1030      C1034   1.277       .  A
O1031      C1034   1.277       .  A
O1032      H1042   0.990       .  S
O1033      H1046   0.990       .  S
C1034      C1680   1.414       .  S
Zr1057     O1058   2.438       .  S
Zr1057     O1059   2.379       .  S
Zr1057     O1060   2.455       .  S
Zr1057     O1063   2.451       .  S
Zr1057     O1065   2.376       .  S
Zr1057     O1066   2.394   1_554  S
Zr1057     O1067   2.398       .  S
Zr1057     O1068   2.388   1_554  S
O1058      H1114   0.991       .  S
O1058      H1122   0.989       .  S
O1059      C1079   1.274       .  A
O1060      C1081   1.289       .  A
O1061     Zr1071   2.389       .  S
O1061      C1080   1.273       .  A
O1062     Zr1070   2.475       .  S
O1062      C1081   1.293       .  A
O1063      C1080   1.288   1_554  A
O1064     Zr1072   2.478   1_554  S
O1064      C1079   1.290       .  A
O1065     Zr1070   2.385       .  S
O1065     Zr1072   2.350   1_554  S
O1066     Zr1071   2.392       .  S
O1066     Zr1072   2.378       .  S
O1066      H1101   0.963       .  S
O1067     Zr1070   2.410       .  S
O1067     Zr1087   2.391   1_554  S
O1067      H1104   0.965       .  S
O1068     Zr1071   2.404       .  S
O1068     Zr1087   2.375       .  S
Zr1069     O1094   2.437       .  S
Zr1069     O1088   2.441       .  S
Zr1069     O1096   2.451       .  S
Zr1069     O1084   2.395       .  S
Zr1069     O1075   2.402       .  S
Zr1069     O1076   2.423       .  S
Zr1069     O1077   2.379       .  S
Zr1069     O1078   2.372       .  S
Zr1070     O1089   2.438       .  S
Zr1070     O1082   2.435       .  S
Zr1070     O1083   2.491   1_554  S
Zr1070     O1076   2.407   1_554  S
Zr1070     O1077   2.379   1_554  S
Zr1071     O1073   2.438       .  S
Zr1071     O1095   2.435       .  S
Zr1071     O1097   2.441       .  S
Zr1071     O1075   2.378       .  S
Zr1071     O1078   2.383       .  S
Zr1072     O1098   2.435       .  S
Zr1072     O1099   2.434       .  S
Zr1072     O1074   2.439   1_556  S
Zr1072     O1075   2.423       .  S
Zr1072     O1076   2.422       .  S
O1073      H1110   0.991       .  S
O1074      H1105   0.990       .  S
O1074      H1119   0.989       .  S
O1076      H1102   0.964       .  S
O1077     Zr1087   2.366       .  S
O1078     Zr1087   2.382       .  S
O1078      H1103   0.963       .  S
C1079      C1669   1.436       .  S
C1080      C1657   1.423       .  S
C1081      C1625   1.462       .  S
O1082      H1118   0.991       .  S
O1083      C1085   1.295       .  A
O1084      C1085   1.277       .  A
C1085      C1634   1.447       .  S
O1086     Zr1087   2.434       .  S
O1086      H1115   0.990   1_556  S
Zr1087     O1090   2.435       .  S
Zr1087     O1091   2.437       .  S
Zr1087     O1092   2.401       .  S
O1088      C1093   1.285       .  A
O1089      H1106   0.990       .  S
O1089      H1121   0.990       .  S
O1090      H1107   0.990       .  S
O1091      H1111   0.990       .  S
O1091      H1120   0.990       .  S
O1092      C1093   1.277       .  A
C1093      C1641   1.426       .  S
O1094      H1113   0.991       .  S
O1094      H1117   0.990       .  S
O1095      H1109   0.991       .  S
O1095      H1116   0.990       .  S
O1096      C1100   1.287       .  A
O1097      C1100   1.283       .  A
O1098      H1108   0.990       .  S
O1099      H1112   0.990       .  S
C1100      C1627   1.449       .  S
Zr1123     O1124   2.437       .  S
Zr1123     O1125   2.416       .  S
Zr1123     O1126   2.462       .  S
Zr1123     O1129   2.447       .  S
Zr1123     O1131   2.370       .  S
Zr1123     O1132   2.397       .  S
Zr1123     O1133   2.405       .  S
Zr1123     O1134   2.395       .  S
O1124      H1180   0.991       .  S
O1124      H1188   0.989       .  S
O1125      C1145   1.280       .  A
O1126      C1147   1.290       .  A
O1127     Zr1137   2.383       .  S
O1127      C1146   1.273       .  A
O1128     Zr1136   2.466       .  S
O1128      C1147   1.290       .  A
O1129      C1146   1.288       .  A
O1130     Zr1138   2.466       .  S
O1130      C1145   1.289       .  A
O1131     Zr1136   2.390       .  S
O1131     Zr1138   2.363       .  S
O1132     Zr1137   2.398       .  S
O1132     Zr1138   2.376       .  S
O1132      H1167   0.966       .  S
O1133     Zr1136   2.407       .  S
O1133     Zr1153   2.403       .  S
O1133      H1170   0.967       .  S
O1134     Zr1137   2.408       .  S
O1134     Zr1153   2.373       .  S
Zr1135     O1160   2.436       .  S
Zr1135     O1154   2.420       .  S
Zr1135     O1162   2.420       .  S
Zr1135     O1150   2.400       .  S
Zr1135     O1141   2.395       .  S
Zr1135     O1142   2.409       .  S
Zr1135     O1143   2.378       .  S
Zr1135     O1144   2.376       .  S
Zr1136     O1155   2.439       .  S
Zr1136     O1148   2.436       .  S
Zr1136     O1149   2.474       .  S
Zr1136     O1142   2.404       .  S
Zr1136     O1143   2.371       .  S
Zr1137     O1139   2.437       .  S
Zr1137     O1161   2.434       .  S
Zr1137     O1163   2.469       .  S
Zr1137     O1141   2.374       .  S
Zr1137     O1144   2.357       .  S
Zr1138     O1164   2.438       .  S
Zr1138     O1165   2.434       .  S
Zr1138     O1140   2.436       .  S
Zr1138     O1141   2.416       .  S
Zr1138     O1142   2.419       .  S
O1139      H1176   0.990       .  S
O1140      H1171   0.990       .  S
O1140      H1185   0.990       .  S
O1142      H1168   0.965       .  S
O1143     Zr1153   2.354       .  S
O1144     Zr1153   2.376       .  S
O1144      H1169   0.965       .  S
C1145      C1656   1.445       .  S
C1146      C1663   1.415       .  S
C1147      C1626   1.462       .  S
O1148      H1184   0.989       .  S
O1149      C1151   1.291       .  A
O1150      C1151   1.277       .  A
C1151      C1647   1.436       .  S
O1152     Zr1153   2.435       .  S
O1152      H1181   0.991       .  S
Zr1153     O1156   2.436       .  S
Zr1153     O1157   2.438       .  S
Zr1153     O1158   2.422       .  S
O1154      C1159   1.281       .  A
O1155      H1172   0.990       .  S
O1155      H1187   0.990       .  S
O1156      H1173   0.990       .  S
O1157      H1177   0.989       .  S
O1157      H1186   0.990       .  S
O1158      C1159   1.282       .  A
C1159      C1635   1.421       .  S
O1160      H1179   0.991       .  S
O1160      H1183   0.990       .  S
O1161      H1175   0.990       .  S
O1161      H1182   0.990       .  S
O1162      C1166   1.280       .  A
O1163      C1166   1.288       .  A
O1164      H1174   0.990       .  S
O1165      H1178   0.991       .  S
C1166      C1628   1.448       .  S
Zr1189     O1190   2.433       .  S
Zr1189     O1191   2.418       .  S
Zr1189     O1192   2.430   1_565  S
Zr1189     O1195   2.406       .  S
Zr1189     O1197   2.363   1_565  S
Zr1189     O1198   2.386       .  S
Zr1189     O1199   2.406   1_565  S
Zr1189     O1200   2.405       .  S
O1190      H1246   0.990       .  S
O1190      H1254   0.990       .  S
O1191      C1211   1.280   1_565  A
O1192      C1213   1.282       .  A
O1193     Zr1203   2.424       .  S
O1193      C1212   1.281       .  A
O1194     Zr1202   2.390       .  S
O1194      C1213   1.276       .  A
O1195      C1212   1.282       .  A
O1196     Zr1204   2.572       .  S
O1196      C1211   1.311       .  A
O1197     Zr1202   2.374       .  S
O1197     Zr1204   2.315       .  S
O1198     Zr1203   2.419       .  S
O1198     Zr1204   2.351   1_565  S
O1198      H1233   0.967       .  S
O1199     Zr1202   2.406       .  S
O1199     Zr1219   2.393       .  S
O1199      H1236   0.966       .  S
O1200     Zr1203   2.415       .  S
O1200     Zr1219   2.403   1_565  S
Zr1201     O1226   2.439       .  S
Zr1201     O1220   2.457       .  S
Zr1201     O1228   2.460       .  S
Zr1201     O1216   2.407       .  S
Zr1201     O1207   2.417       .  S
Zr1201     O1208   2.430       .  S
Zr1201     O1209   2.367       .  S
Zr1201     O1210   2.379       .  S
Zr1202     O1221   2.435       .  S
Zr1202     O1214   2.436       .  S
Zr1202     O1215   2.441       .  S
Zr1202     O1208   2.401       .  S
Zr1202     O1209   2.337       .  S
Zr1203     O1205   2.435       .  S
Zr1203     O1227   2.436       .  S
Zr1203     O1229   2.493       .  S
Zr1203     O1207   2.391   1_565  S
Zr1203     O1210   2.384   1_565  S
Zr1204     O1230   2.437       .  S
Zr1204     O1231   2.435       .  S
Zr1204     O1206   2.435       .  S
Zr1204     O1207   2.460       .  S
Zr1204     O1208   2.419       .  S
O1205      H1242   0.991       .  S
O1206      H1237   0.991       .  S
O1206      H1251   0.989       .  S
O1208      H1234   0.966       .  S
O1209     Zr1219   2.365       .  S
O1210     Zr1219   2.366       .  S
O1210      H1235   0.962       .  S
C1211      C1716   1.500       .  S
C1212      C1766   1.413       .  S
C1213      C1651   1.407       .  S
O1214      H1250   0.991       .  S
O1215      C1217   1.283       .  A
O1216      C1217   1.280       .  A
C1217      C1615   1.424       .  S
O1218     Zr1219   2.430   1_565  S
O1218      H1247   0.990       .  S
Zr1219     O1222   2.437       .  S
Zr1219     O1223   2.440   1_545  S
Zr1219     O1224   2.437       .  S
O1220      C1225   1.289       .  A
O1221      H1238   0.990       .  S
O1221      H1253   0.990       .  S
O1222      H1239   0.989       .  S
O1223      H1243   0.990       .  S
O1223      H1252   0.990       .  S
O1224      C1225   1.284       .  A
C1225      C1624   1.437       .  S
O1226      H1245   0.990       .  S
O1226      H1249   0.991       .  S
O1227      H1241   0.990       .  S
O1227      H1248   0.990       .  S
O1228      C1232   1.289       .  A
O1229      C1232   1.294   1_565  A
O1230      H1240   0.990       .  S
O1231      H1244   0.991       .  S
C1232      C1619   1.469   1_545  S
Zr1255     O1256   2.442       .  S
Zr1255     O1257   2.452   1_545  S
Zr1255     O1258   2.416       .  S
Zr1255     O1261   2.409   1_545  S
Zr1255     O1263   2.366       .  S
Zr1255     O1264   2.389   1_545  S
Zr1255     O1265   2.405       .  S
Zr1255     O1266   2.400       .  S
O1256      H1312   0.990       .  S
O1256      H1320   0.991       .  S
O1257      C1277   1.284       .  A
O1258      C1279   1.279       .  A
O1259     Zr1269   2.431       .  S
O1259      C1278   1.282       .  A
O1260     Zr1268   2.410       .  S
O1260      C1279   1.278       .  A
O1261      C1278   1.279       .  A
O1262     Zr1270   2.504       .  S
O1262      C1277   1.295   1_545  A
O1263     Zr1268   2.392       .  S
O1263     Zr1270   2.358       .  S
O1264     Zr1269   2.433       .  S
O1264     Zr1270   2.382   1_565  S
O1264      H1299   0.967       .  S
O1265     Zr1268   2.402       .  S
O1265     Zr1285   2.369       .  S
O1265      H1302   0.967       .  S
O1266     Zr1269   2.407   1_545  S
O1266     Zr1285   2.373       .  S
Zr1267     O1292   2.436       .  S
Zr1267     O1286   2.436       .  S
Zr1267     O1294   2.415       .  S
Zr1267     O1282   2.406       .  S
Zr1267     O1273   2.411       .  S
Zr1267     O1274   2.416       .  S
Zr1267     O1275   2.377       .  S
Zr1267     O1276   2.376       .  S
Zr1268     O1287   2.437       .  S
Zr1268     O1280   2.435       .  S
Zr1268     O1281   2.429       .  S
Zr1268     O1274   2.394       .  S
Zr1268     O1275   2.379       .  S
Zr1269     O1271   2.439       .  S
Zr1269     O1293   2.436       .  S
Zr1269     O1295   2.522       .  S
Zr1269     O1273   2.384   1_565  S
Zr1269     O1276   2.375   1_565  S
Zr1270     O1296   2.437   1_545  S
Zr1270     O1297   2.435   1_545  S
Zr1270     O1272   2.436       .  S
Zr1270     O1273   2.446       .  S
Zr1270     O1274   2.425       .  S
O1271      H1308   0.990       .  S
O1272      H1303   0.989       .  S
O1272      H1317   0.991       .  S
O1274      H1300   0.965       .  S
O1275     Zr1285   2.376       .  S
O1276     Zr1285   2.363       .  S
O1276      H1301   0.962       .  S
C1277      C1703   1.484   1_455  S
C1278      C1749   1.416       .  S
C1279      C1640   1.411       .  S
O1280      H1316   0.990       .  S
O1281      C1283   1.281       .  A
O1282      C1283   1.278       .  A
C1283      C1614   1.424       .  S
O1284     Zr1285   2.439       .  S
O1284      H1313   0.990       .  S
Zr1285     O1288   2.437       .  S
Zr1285     O1289   2.440       .  S
Zr1285     O1290   2.396       .  S
O1286      C1291   1.283       .  A
O1287      H1304   0.989       .  S
O1287      H1319   0.991       .  S
O1288      H1305   0.990       .  S
O1289      H1309   0.991       .  S
O1289      H1318   0.988       .  S
O1290      C1291   1.276       .  A
C1291      C1607   1.419       .  S
O1292      H1311   0.990       .  S
O1292      H1315   0.990       .  S
O1293      H1307   0.989       .  S
O1293      H1314   0.991       .  S
O1294      C1298   1.279   1_545  A
O1295      C1298   1.299       .  A
O1296      H1306   0.991       .  S
O1297      H1310   0.990   1_565  S
C1298      C1620   1.467       .  S
Zr1321     O1322   2.443   1_556  S
Zr1321     O1323   2.484       .  S
Zr1321     O1324   2.429       .  S
Zr1321     O1327   2.440   1_556  S
Zr1321     O1329   2.366       .  S
Zr1321     O1330   2.399       .  S
Zr1321     O1331   2.416       .  S
Zr1321     O1332   2.398       .  S
O1322      H1378   0.990       .  S
O1322      H1386   0.992       .  S
O1323      C1343   1.291       .  A
O1324      C1345   1.283       .  A
O1325     Zr1335   2.426   1_554  S
O1325      C1344   1.282       .  A
O1326     Zr1334   2.446       .  S
O1326      C1345   1.285       .  A
O1327      C1344   1.285       .  A
O1328     Zr1336   2.478       .  S
O1328      C1343   1.290       .  A
O1329     Zr1334   2.387       .  S
O1329     Zr1336   2.374       .  S
O1330     Zr1335   2.430       .  S
O1330     Zr1336   2.384       .  S
O1330      H1365   0.969       .  S
O1331     Zr1334   2.403       .  S
O1331     Zr1351   2.368       .  S
O1331      H1368   0.965       .  S
O1332     Zr1335   2.386       .  S
O1332     Zr1351   2.361       .  S
Zr1333     O1358   2.443       .  S
Zr1333     O1352   2.474       .  S
Zr1333     O1360   2.463       .  S
Zr1333     O1348   2.408       .  S
Zr1333     O1339   2.417       .  S
Zr1333     O1340   2.427       .  S
Zr1333     O1341   2.378       .  S
Zr1333     O1342   2.384       .  S
Zr1334     O1353   2.436       .  S
Zr1334     O1346   2.435       .  S
Zr1334     O1347   2.429       .  S
Zr1334     O1340   2.409       .  S
Zr1334     O1341   2.379       .  S
Zr1335     O1337   2.439       .  S
Zr1335     O1359   2.437       .  S
Zr1335     O1361   2.499       .  S
Zr1335     O1339   2.377       .  S
Zr1335     O1342   2.386       .  S
Zr1336     O1362   2.437       .  S
Zr1336     O1363   2.438       .  S
Zr1336     O1338   2.437       .  S
Zr1336     O1339   2.436       .  S
Zr1336     O1340   2.402       .  S
O1337      H1374   0.990       .  S
O1338      H1369   0.990       .  S
O1338      H1383   0.990       .  S
O1340      H1366   0.966       .  S
O1341     Zr1351   2.377       .  S
O1342     Zr1351   2.361       .  S
O1342      H1367   0.966       .  S
C1343      C1689   1.485       .  S
C1344      C1781   1.414       .  S
C1345      C1661   1.426       .  S
O1346      H1382   0.990       .  S
O1347      C1349   1.283       .  A
O1348      C1349   1.280       .  A
C1349      C1597   1.415       .  S
O1350     Zr1351   2.440   1_554  S
O1350      H1379   0.990       .  S
Zr1351     O1354   2.438       .  S
Zr1351     O1355   2.438   1_556  S
Zr1351     O1356   2.402       .  S
O1352      C1357   1.286       .  A
O1353      H1370   0.990       .  S
O1353      H1385   0.990       .  S
O1354      H1371   0.990       .  S
O1355      H1375   0.990       .  S
O1355      H1384   0.990       .  S
O1356      C1357   1.268       .  A
C1357      C1603   1.438       .  S
O1358      H1377   0.991       .  S
O1358      H1381   0.990       .  S
O1359      H1373   0.991       .  S
O1359      H1380   0.990       .  S
O1360      C1364   1.290       .  A
O1361      C1364   1.295       .  A
O1362      H1372   0.991       .  S
O1363      H1376   0.990       .  S
C1364      C1602   1.471       .  S
Zr1387     O1388   2.439       .  S
Zr1387     O1389   2.502       .  S
Zr1387     O1390   2.441       .  S
Zr1387     O1393   2.452       .  S
Zr1387     O1395   2.369       .  S
Zr1387     O1396   2.400       .  S
Zr1387     O1397   2.421       .  S
Zr1387     O1398   2.403       .  S
O1388      H1444   0.990       .  S
O1388      H1452   0.991       .  S
O1389      C1409   1.294       .  A
O1390      C1411   1.284       .  A
O1391     Zr1401   2.443       .  S
O1391      C1410   1.285       .  A
O1392     Zr1400   2.420       .  S
O1392      C1411   1.279       .  A
O1393      C1410   1.288       .  A
O1394     Zr1402   2.508       .  S
O1394      C1409   1.296       .  A
O1395     Zr1400   2.391       .  S
O1395     Zr1402   2.369       .  S
O1396     Zr1401   2.442       .  S
O1396     Zr1402   2.387       .  S
O1396      H1431   0.971       .  S
O1397     Zr1400   2.402       .  S
O1397     Zr1417   2.361       .  S
O1397      H1434   0.961       .  S
O1398     Zr1401   2.387       .  S
O1398     Zr1417   2.359       .  S
Zr1399     O1424   2.441       .  S
Zr1399     O1418   2.481       .  S
Zr1399     O1426   2.429       .  S
Zr1399     O1414   2.398       .  S
Zr1399     O1405   2.421       .  S
Zr1399     O1406   2.425       .  S
Zr1399     O1407   2.367       .  S
Zr1399     O1408   2.376       .  S
Zr1400     O1419   2.438       .  S
Zr1400     O1412   2.435       .  S
Zr1400     O1413   2.421       .  S
Zr1400     O1406   2.395       .  S
Zr1400     O1407   2.388       .  S
Zr1401     O1403   2.439       .  S
Zr1401     O1425   2.437       .  S
Zr1401     O1427   2.521       .  S
Zr1401     O1405   2.381       .  S
Zr1401     O1408   2.392       .  S
Zr1402     O1428   2.439       .  S
Zr1402     O1429   2.437   1_556  S
Zr1402     O1404   2.436   1_556  S
Zr1402     O1405   2.448       .  S
Zr1402     O1406   2.420       .  S
O1403      H1440   0.990       .  S
O1404      H1435   0.990       .  S
O1404      H1449   0.990       .  S
O1406      H1432   0.966   1_556  S
O1407     Zr1417   2.376       .  S
O1408     Zr1417   2.362       .  S
O1408      H1433   0.961       .  S
C1409      C1678   1.509   1_455  S
C1410      C1738   1.431       .  S
C1411      C1629   1.417       .  S
O1412      H1448   0.990   1_556  S
O1413      C1415   1.280   1_556  A
O1414      C1415   1.277   1_556  A
C1415      C1593   1.414       .  S
O1416     Zr1417   2.439       .  S
O1416      H1445   0.990       .  S
Zr1417     O1420   2.439       .  S
Zr1417     O1421   2.440       .  S
Zr1417     O1422   2.386       .  S
O1418      C1423   1.292       .  A
O1419      H1436   0.990       .  S
O1419      H1451   0.990       .  S
O1420      H1437   0.990       .  S
O1421      H1441   0.989       .  S
O1421      H1450   0.991       .  S
O1422      C1423   1.273       .  A
C1423      C1592   1.441       .  S
O1424      H1443   0.990   1_556  S
O1424      H1447   0.990   1_556  S
O1425      H1439   0.990       .  S
O1425      H1446   0.990       .  S
O1426      C1430   1.282       .  A
O1427      C1430   1.299       .  A
O1428      H1438   0.990       .  S
O1429      H1442   0.990       .  S
C1430      C1601   1.469       .  S
Zr1453     O1454   2.436       .  S
Zr1453     O1455   2.418       .  S
Zr1453     O1456   2.422       .  S
Zr1453     O1459   2.403       .  S
Zr1453     O1461   2.371       .  S
Zr1453     O1462   2.386       .  S
Zr1453     O1463   2.400       .  S
Zr1453     O1464   2.404       .  S
O1454      H1510   0.990       .  S
O1454      H1518   0.989       .  S
O1455      C1475   1.280       .  A
O1456      C1477   1.281       .  A
O1457     Zr1467   2.445       .  S
O1457      C1476   1.285       .  A
O1458     Zr1466   2.460       .  S
O1458      C1477   1.287       .  A
O1459      C1476   1.279       .  A
O1460     Zr1468   2.419       .  S
O1460      C1475   1.280       .  A
O1461     Zr1466   2.367       .  S
O1461     Zr1468   2.376       .  S
O1462     Zr1467   2.391       .  S
O1462     Zr1468   2.354       .  S
O1462      H1497   0.962       .  S
O1463     Zr1466   2.388       .  S
O1463     Zr1483   2.412       .  S
O1463      H1500   0.965       .  S
O1464     Zr1467   2.395       .  S
O1464     Zr1483   2.414       .  S
Zr1465     O1490   2.440       .  S
Zr1465     O1484   2.412       .  S
Zr1465     O1492   2.463       .  S
Zr1465     O1480   2.435       .  S
Zr1465     O1471   2.396       .  S
Zr1465     O1472   2.409       .  S
Zr1465     O1473   2.389       .  S
Zr1465     O1474   2.381       .  S
Zr1466     O1485   2.435       .  S
Zr1466     O1478   2.434       .  S
Zr1466     O1479   2.403       .  S
Zr1466     O1472   2.416       .  S
Zr1466     O1473   2.397       .  S
Zr1467     O1469   2.436       .  S
Zr1467     O1491   2.436       .  S
Zr1467     O1493   2.440       .  S
Zr1467     O1471   2.399       .  S
Zr1467     O1474   2.396       .  S
Zr1468     O1494   2.438       .  S
Zr1468     O1495   2.435       .  S
Zr1468     O1470   2.436       .  S
Zr1468     O1471   2.397       .  S
Zr1468     O1472   2.371       .  S
O1469      H1506   0.991       .  S
O1470      H1501   0.991       .  S
O1470      H1515   0.990       .  S
O1472      H1498   0.965       .  S
O1473     Zr1483   2.369       .  S
O1474     Zr1483   2.364       .  S
O1474      H1499   0.969       .  S
C1475      C1618   1.425       .  S
C1476      C1610   1.422       .  S
C1477      C1585   1.448       .  S
O1478      H1514   0.990       .  S
O1479      C1481   1.278       .  A
O1480      C1481   1.286       .  A
C1481      C1600   1.417       .  S
O1482     Zr1483   2.435       .  S
O1482      H1511   0.990       .  S
Zr1483     O1486   2.434       .  S
Zr1483     O1487   2.439       .  S
Zr1483     O1488   2.468       .  S
O1484      C1489   1.279       .  A
O1485      H1502   0.990       .  S
O1485      H1517   0.990       .  S
O1486      H1503   0.990       .  S
O1487      H1507   0.990       .  S
O1487      H1516   0.990       .  S
O1488      C1489   1.289       .  A
C1489      C1589   1.446       .  S
O1490      H1509   0.991       .  S
O1490      H1513   0.989       .  S
O1491      H1505   0.991       .  S
O1491      H1512   0.990       .  S
O1492      C1496   1.290       .  A
O1493      C1496   1.285       .  A
O1494      H1504   0.990       .  S
O1495      H1508   0.990       .  S
C1496      C1587   1.450       .  S
Zr1519     O1520   2.437       .  S
Zr1519     O1521   2.430       .  S
Zr1519     O1522   2.444       .  S
Zr1519     O1525   2.414       .  S
Zr1519     O1527   2.369       .  S
Zr1519     O1528   2.388       .  S
Zr1519     O1529   2.401       .  S
Zr1519     O1530   2.415       .  S
O1520      H1576   0.991       .  S
O1520      H1584   0.990       .  S
O1521      C1541   1.282       .  A
O1522      C1543   1.285       .  A
O1523     Zr1533   2.470       .  S
O1523      C1542   1.291       .  A
O1524     Zr1532   2.442       .  S
O1524      C1543   1.284       .  A
O1525      C1542   1.281       .  A
O1526     Zr1534   2.403       .  S
O1526      C1541   1.277       .  A
O1527     Zr1532   2.378       .  S
O1527     Zr1534   2.383       .  S
O1528     Zr1533   2.393       .  S
O1528     Zr1534   2.356       .  S
O1528      H1563   0.965       .  S
O1529     Zr1532   2.386       .  S
O1529     Zr1549   2.409       .  S
O1529      H1566   0.967       .  S
O1530     Zr1533   2.406       .  S
O1530     Zr1549   2.421       .  S
Zr1531     O1556   2.439   1_554  S
Zr1531     O1550   2.390       .  S
Zr1531     O1558   2.433   1_554  S
Zr1531     O1546   2.430       .  S
Zr1531     O1537   2.393       .  S
Zr1531     O1538   2.396       .  S
Zr1531     O1539   2.384       .  S
Zr1531     O1540   2.380       .  S
Zr1532     O1551   2.436       .  S
Zr1532     O1544   2.435       .  S
Zr1532     O1545   2.401       .  S
Zr1532     O1538   2.411       .  S
Zr1532     O1539   2.394       .  S
Zr1533     O1535   2.435       .  S
Zr1533     O1557   2.436       .  S
Zr1533     O1559   2.471   1_554  S
Zr1533     O1537   2.402       .  S
Zr1533     O1540   2.392       .  S
Zr1534     O1560   2.436       .  S
Zr1534     O1561   2.435       .  S
Zr1534     O1536   2.436       .  S
Zr1534     O1537   2.398       .  S
Zr1534     O1538   2.371       .  S
O1535      H1572   0.990       .  S
O1536      H1567   0.990       .  S
O1536      H1581   0.990       .  S
O1538      H1564   0.962       .  S
O1539     Zr1549   2.371       .  S
O1540     Zr1549   2.357       .  S
O1540      H1565   0.964       .  S
C1541      C1611   1.424       .  S
C1542      C1621   1.439       .  S
C1543      C1586   1.448       .  S
O1544      H1580   0.990       .  S
O1545      C1547   1.278       .  A
O1546      C1547   1.284       .  A
C1547      C1596   1.415       .  S
O1548     Zr1549   2.440       .  S
O1548      H1577   0.991       .  S
Zr1549     O1552   2.437       .  S
Zr1549     O1553   2.438       .  S
Zr1549     O1554   2.478       .  S
O1550      C1555   1.275       .  A
O1551      H1568   0.990       .  S
O1551      H1583   0.990       .  S
O1552      H1569   0.991       .  S
O1553      H1573   0.989       .  S
O1553      H1582   0.991       .  S
O1554      C1555   1.292       .  A
C1555      C1606   1.441   1_554  S
O1556      H1575   0.990       .  S
O1556      H1579   0.990   1_556  S
O1557      H1571   0.991       .  S
O1557      H1578   0.990       .  S
O1558      C1562   1.284       .  A
O1559      C1562   1.292       .  A
O1560      H1570   0.990       .  S
O1561      H1574   0.989       .  S
C1562      C1588   1.449       .  S
C1585      C1586   1.214       .  T
C1587      C1588   1.215       .  T
C1589      C1590   1.213       .  T
C1590      C1591   1.423       .  S
C1591      C1592   1.212       .  T
C1593      C1594   1.193       .  T
C1594      C1595   1.392       .  S
C1595      C1596   1.194       .  T
C1597      C1598   1.193       .  T
C1598      C1599   1.392       .  S
C1599      C1600   1.194       .  T
C1601      C1602   1.227       .  T
C1603      C1604   1.210       .  T
C1604      C1605   1.420       .  S
C1605      C1606   1.211       .  T
C1607      C1608   1.197       .  T
C1608      C1609   1.400       .  S
C1609      C1610   1.199       .  T
C1611      C1612   1.199       .  T
C1612      C1613   1.402       .  S
C1613      C1614   1.200       .  T
C1615      C1616   1.199       .  T
C1616      C1617   1.401       .  S
C1617      C1618   1.199       .  T
C1619      C1620   1.226       .  T
C1621      C1622   1.209       .  T
C1622      C1623   1.417       .  S
C1623      C1624   1.208       .  T
C1625      C1626   1.222       .  T
C1627      C1628   1.214       .  T
C1629      C1630   1.197       .  T
C1631      C1632   1.215       .  T
C1632      C1633   1.427       .  S
C1633      C1634   1.214       .  T
C1635      C1636   1.198       .  T
C1636      C1637   1.398       .  S
C1637      C1638   1.197       .  T
C1639      C1640   1.192   1_655  T
C1641      C1642   1.202       .  T
C1642      C1643   1.406       .  S
C1643      C1644   1.202       .  T
C1645      C1646   1.230       .  T
C1647      C1648   1.207       .  T
C1648      C1649   1.415       .  S
C1649      C1650   1.206       .  T
C1651      C1652   1.193       .  T
C1653      C1654   1.210       .  T
C1654      C1655   1.421       .  S
C1655      C1656   1.212       .  T
C1657      C1658   1.200       .  T
C1658      C1659   1.400       .  S
C1659      C1660   1.196       .  T
C1661      C1662   1.203   1_556  T
C1663      C1664   1.194       .  T
C1664      C1665   1.391       .  S
C1665      C1666   1.192       .  T
C1667      C1668   1.241       .  T
C1669      C1670   1.208       .  T
C1670      C1671   1.416       .  S
C1671      C1672   1.208       .  T
C1673      C1674   1.216       .  T
C1675      C1676   1.215       .  T
C1677      C1678   1.250       .  T
C1679      C1680   1.187       .  T
C1681      C1682   1.211       .  T
C1682      C1683   1.420       .  S
C1683      C1684   1.210       .  T
C1685      C1686   1.199       .  T
C1686      C1687   1.401       .  S
C1687      C1688   1.199       .  T
C1689      C1690   1.235       .  T
C1691      C1692   1.202       .  T
C1693      C1694   1.201       .  T
C1694      C1695   1.404       .  S
C1695      C1696   1.201       .  T
C1697      C1698   1.230       .  T
C1699      C1700   1.200       .  T
C1700      C1701   1.404       .  S
C1701      C1702   1.201       .  T
C1703      C1704   1.235       .  T
C1705      C1706   1.188       .  T
C1707      C1708   1.213       .  T
C1708      C1709   1.423       .  S
C1709      C1710   1.212       .  T
C1711      C1712   1.193       .  T
C1712      C1713   1.390       .  S
C1713      C1714   1.191       .  T
C1715      C1716   1.246       .  T
C1717      C1718   1.200       .  T
C1719      C1720   1.193       .  T
C1720      C1721   1.392       .  S
C1721      C1722   1.194       .  T
C1723      C1724   1.229       .  T
C1725      C1726   1.213       .  T
C1726      C1727   1.425       .  S
C1727      C1728   1.214       .  T
C1729      C1730   1.209       .  T
C1731      C1732   1.216       .  T
C1733      C1734   1.249       .  T
C1735      C1736   1.187       .  T
C1737      C1738   1.202       .  T
C1739      C1740   1.215       .  T
C1740      C1741   1.428       .  S
C1741      C1742   1.216       .  T
C1743      C1744   1.198       .  T
C1744      C1745   1.396       .  S
C1745      C1746   1.194       .  T
C1747      C1748   1.239   1_565  T
C1749      C1750   1.195       .  T
C1751      C1752   1.199       .  T
C1753      C1754   1.195       .  T
C1754      C1755   1.392       .  S
C1755      C1756   1.190       .  T
C1757      C1758   1.238       .  T
C1759      C1760   1.209       .  T
C1760      C1761   1.419       .  S
C1761      C1762   1.209       .  T
C1763      C1764   1.195       .  T
C1765      C1766   1.192       .  T
C1767      C1768   1.248   1_545  T
C1769      C1770   1.210       .  T
C1770      C1771   1.420       .  S
C1771      C1772   1.210       .  T
C1773      C1774   1.196       .  T
C1774      C1775   1.398       .  S
C1775      C1776   1.198       .  T
C1777      C1778   1.237       .  T
C1779      C1780   1.189       .  T
C1781      C1782   1.191       .  T
C1783      C1784   1.197       .  T
C1784      C1785   1.398       .  S
C1785      C1786   1.196       .  T
C1787      C1788   1.229       .  T
C1789      C1790   1.206       .  T
C1790      C1791   1.414       .  S
C1791      C1792   1.207   1_554  T
