geometry optimzed in LAMMPS
_audit_creation_date              2020-11-30 
_audit_creation_method            'lammps2cif' 
_symmetry_space_group_name_H-M    'P1' 
_symmetry_Int_Tables_number       1 
_symmetry_cell_setting            triclinic 
loop_ 
_symmetry_equiv_pos_as_xyz 
  x,y,z 
_cell_length_a                    37.8939752150976 
_cell_length_b                    31.83213443311671 
_cell_length_c                    35.816295823391535 
_cell_angle_alpha                 88.86241826054304 
_cell_angle_beta                  90.26404792891296 
_cell_angle_gamma                 89.56419268606399 
loop_ 
_atom_site_label 
_atom_site_type_symbol 
_atom_site_fract_x 
_atom_site_fract_y 
_atom_site_fract_z 
_atom_site_charge 
Zr1        Zr  0.57400489  0.47697208  0.49533416     2.17510
O2          O  0.63331371  0.49675760  0.51466487    -0.52170
O3          O  0.59494555  0.42542775  0.45153716    -0.75380
O4          O  0.59840901  0.42979172  0.54445658    -0.82160
O5          O  0.56877211  0.56487671  0.42276645    -0.83910
O6          O  0.55298827  0.39793823  0.57487779    -0.79530
O7          O  0.60829494  0.52496631  0.45589142    -0.91170
O8          O  0.54845611  0.40089602  0.41820422    -0.77130
O9          O  0.53238906  0.42121507  0.49683335    -0.86620
O10         O  0.53796662  0.48456449  0.44074083    -0.86310
O11         O  0.54181659  0.48658187  0.55220230    -0.73070
O12         O  0.54680976  0.54532197  0.49907163    -0.85200
Zr13       Zr  0.43519626  0.50389998  0.50273228     2.26420
Zr14       Zr  0.49957596  0.43110029  0.55279670     2.06270
Zr15       Zr  0.51032198  0.55158548  0.44461662     2.10050
Zr16       Zr  0.49559211  0.42985736  0.44300035     1.78760
O17         O  0.51218513  0.62807724  0.44201597    -0.94010
O18         O  0.48931873  0.35420555  0.45197896    -0.41810
O19         O  0.46759483  0.49687244  0.44517900    -0.78450
O20         O  0.46237455  0.43612529  0.49894009    -0.97130
O21         O  0.47071521  0.49741933  0.55758336    -0.90440
O22         O  0.47711591  0.56079594  0.50029988    -0.93280
C23         C  0.58127184  0.40318455  0.42580201     1.00470
C24         C  0.60025711  0.55328424  0.43110928     1.13400
C25         C  0.58582245  0.40410225  0.56919373     1.04180
O26         O  0.49234606  0.35527017  0.55729451    -0.95430
O27         O  0.44040994  0.41312283  0.57001639    -0.91180
O28         O  0.40236280  0.46287404  0.54673258    -0.84320
C29         C  0.40979836  0.42972342  0.56576614     1.10820
O30         O  0.56794474  0.58063023  0.57798354    -0.97410
Zr31       Zr  0.51230735  0.55309798  0.55464699     1.88940
O32         O  0.41178111  0.55863901  0.54025982    -0.74060
O33         O  0.49865604  0.43915283  0.62028558    -0.53320
O34         O  0.51534607  0.53932146  0.62173228    -0.98000
O35         O  0.51714476  0.62944279  0.54948902    -0.55220
O36         O  0.45654874  0.58162322  0.57643971    -0.74570
C37         C  0.42393932  0.58098250  0.56642326     0.97770
O38         O  0.38489673  0.47206416  0.47149124    -0.63390
O39         O  0.50232374  0.55770092  0.37714983    -0.58200
O40         O  0.39662449  0.54755779  0.46571062    -0.94880
O41         O  0.44810650  0.55945807  0.44421135    -0.93310
O42         O  0.49203336  0.44271377  0.37580910    -0.93660
O43         O  0.44091921  0.40554173  0.41481832    -0.92450
C44         C  0.41536798  0.56591956  0.44150270     1.16610
H45         H  0.55173107  0.48338075  0.41815272     0.32560
H46         H  0.44483366  0.41427699  0.49945037     0.43410
H47         H  0.46587588  0.58818265  0.50077061     0.36930
H48         H  0.55734514  0.48418331  0.57359545     0.33410
H49         H  0.49157611  0.34262382  0.42663600     0.25200
H50         H  0.49706713  0.41009001  0.63048955     0.31140
H51         H  0.50558459  0.56501880  0.63306358     0.37050
H52         H  0.49786727  0.41535075  0.36458587     0.31510
H53         H  0.51703985  0.58179358  0.36918015     0.30390
H54         H  0.52395474  0.63523012  0.41813351     0.32070
H55         H  0.51017218  0.63977139  0.57431220     0.31030
H56         H  0.42602920  0.39621883  0.43600189     0.35030
H57         H  0.39242117  0.46917535  0.44521625     0.27770
H58         H  0.64820326  0.47140837  0.51135230     0.32000
H59         H  0.56206689  0.59598529  0.60093704     0.34850
H60         H  0.51465437  0.53279847  0.36722310     0.27460
H61         H  0.38389087  0.44273553  0.48112788     0.40330
H62         H  0.50575162  0.34422927  0.53591078     0.30390
H63         H  0.51120910  0.34502063  0.46504818     0.38000
H64         H  0.49777684  0.63887048  0.53262992     0.29850
H65         H  0.52274137  0.44827873  0.62698929     0.29920
H66         H  0.63203900  0.50048648  0.54201041     0.30180
Zr67       Zr  0.94718812  0.48318997  0.50536787     2.17510
O68         O  0.88579126  0.49686321  0.48775787    -0.52170
O69         O  0.92729072  0.43611511  0.55645107    -0.75380
O70         O  0.92389841  0.43323064  0.45942651    -0.82160
O71         O  0.94895460  0.58046705  0.56519817    -0.83910
O72         O  0.97018062  0.40482630  0.42846523    -0.79530
O73         O  0.91216139  0.53547918  0.53539132    -0.91170
O74         O  0.97464551  0.41038352  0.58846623    -0.77130
O75         O  0.99002174  0.42871317  0.50580389    -0.86620
O76         O  0.98333593  0.49427428  0.55911157    -0.86310
O77         O  0.97793184  0.49542169  0.44772961    -0.73070
O78         O  0.97306586  0.55216537  0.49856563    -0.85200
Zr79       Zr  0.08484533  0.51768200  0.49612725     2.26420
Zr80       Zr  0.02181162  0.44128265  0.44936429     2.06270
Zr81       Zr  0.00984320  0.56211445  0.55219882     2.10050
Zr82       Zr  0.02646130  0.43980932  0.55907742     1.78760
O83         O  0.00509526  0.63835476  0.54770357    -0.94010
O84         O  0.03309882  0.36419619  0.55186487    -0.41810
O85         O  0.05332419  0.50757186  0.55337214    -0.78450
O86         O  0.05936032  0.44887011  0.50272903    -0.97130
O87         O  0.04870466  0.50842814  0.44244868    -0.90440
O88         O  0.04222449  0.57284340  0.49595384    -0.93280
C89         C  0.94129754  0.41357071  0.58301942     1.00470
C90         C  0.91837808  0.56668220  0.55623098     1.13400
C91         C  0.93723318  0.40832529  0.43517301     1.04180
O92         O  0.03527809  0.36638312  0.45265192    -0.95430
O93         O  0.08014050  0.42912648  0.42780685    -0.91180
O94         O  0.11866774  0.47375952  0.45521453    -0.84320
C95         C  0.11096695  0.44349395  0.43371232     1.10820
O96         O  0.95001736  0.58991056  0.41738177    -0.97410
Zr97       Zr  0.00596237  0.56293775  0.44228315     1.88940
O98         O  0.10612220  0.56657420  0.44833672    -0.74060
O99         O  0.01983613  0.44478870  0.38131735    -0.53320
O100        O  0.00186876  0.54652505  0.37622905    -0.98000
O101        O  0.99815366  0.63887286  0.44662380    -0.55220
O102        O  0.05967652  0.59071761  0.41400278    -0.74570
C103        C  0.09294932  0.58825896  0.42097920     0.97770
O104        O  0.14141003  0.49444038  0.52291570    -0.63390
O105        O  0.00559752  0.56137909  0.62011020    -0.58200
O106        O  0.11067543  0.56634602  0.54042251    -0.94880
O107        O  0.06580660  0.58801133  0.57737254    -0.93310
O108        O  0.03244898  0.45398290  0.62536810    -0.93660
O109        O  0.08206534  0.41304251  0.58468616    -0.92450
C110        C  0.09879044  0.58599912  0.56885301     1.16610
H111        H  0.96959113  0.49342141  0.58173435     0.32560
H112        H  0.07775937  0.42769980  0.50264645     0.43410
H113        H  0.05359772  0.59991078  0.49547619     0.36930
H114        H  0.96218706  0.49213315  0.42673471     0.33410
H115        H  0.03125626  0.35228491  0.57752888     0.25200
H116        H  0.01998554  0.41510982  0.37352285     0.31140
H117        H  0.00968581  0.57230297  0.36283203     0.37050
H118        H  0.02804114  0.42667320  0.63816731     0.31510
H119        H  0.00185121  0.59116581  0.62660982     0.30390
H120        H  0.00693444  0.64779572  0.57380647     0.32070
H121        H  0.00801325  0.65054908  0.42309290     0.31030
H122        H  0.10006601  0.43275867  0.57498528     0.35030
H123        H  0.13872517  0.49648510  0.55030578     0.27770
H124        H  0.87306855  0.47032461  0.49292921     0.32000
H125        H  0.95598591  0.60638126  0.39456012     0.34850
H126        H  0.98287382  0.54768874  0.62598848     0.27460
H127        H  0.14269658  0.46375736  0.51900766     0.40330
H128        H  0.01610151  0.35394044  0.46783279     0.30390
H129        H  0.01110656  0.35532120  0.53936360     0.38000
H130        H  0.01477895  0.64790560  0.46620545     0.29850
H131        H  0.99588516  0.45529911  0.37483705     0.29920
H132        H  0.88565237  0.50032825  0.46021940     0.30180
Zr133      Zr  0.52028850  0.50873020  0.09043502     2.17510
O134        O  0.49958024  0.54596915  0.14509384    -0.52170
O135        O  0.56065359  0.45810224  0.11809619    -0.75380
O136        O  0.48667813  0.46206348  0.12833460    -0.82160
O137        O  0.59017737  0.58825578  0.07009283    -0.83910
O138        O  0.45032608  0.43159228  0.08662928    -0.79530
O139        O  0.56519185  0.55211515  0.11819159    -0.91170
O140        O  0.57898904  0.41553609  0.07150334    -0.77130
O141        O  0.51022835  0.44754342  0.05446306    -0.86620
O142        O  0.56762212  0.50341784  0.04780559    -0.86310
O143        O  0.46317616  0.51712359  0.06160759    -0.73070
O144        O  0.51661966  0.57271052  0.05492000    -0.85200
Zr145      Zr  0.49797319  0.51412027  0.94249390     2.26420
Zr146      Zr  0.45491562  0.45705707  0.02343470     2.06270
Zr147      Zr  0.56327228  0.56618593  0.01144635     2.10050
Zr148      Zr  0.55731495  0.44274233  0.01185770     1.78760
O149        O  0.56157586  0.64248185  0.00549790    -0.94010
O150        O  0.54381185  0.36806346  0.01168380    -0.41810
O151        O  0.55396744  0.50524988  0.97411686    -0.78450
O152        O  0.50187860  0.45048058  0.97952171    -0.97130
O153        O  0.45097771  0.51933301  0.98616025    -0.90440
O154        O  0.50798125  0.57511512  0.97962154    -0.93280
C155        C  0.57807675  0.42681041  0.10565427     1.00470
C156        C  0.58760580  0.57839588  0.10499693     1.13400
C157        C  0.46302565  0.43589099  0.11954685     1.04180
O158        O  0.44445849  0.38171837  0.02448970    -0.95430
O159        O  0.42529971  0.43246604  0.96760863    -0.91180
O160        O  0.44824954  0.46913988  0.91844987    -0.84320
C161        C  0.42662168  0.44146907  0.93252748     1.10820
O162        O  0.44622118  0.61643782  0.08028389    -0.97410
Zr163      Zr  0.46100534  0.57919215  0.02346711     1.88940
O164        O  0.46121471  0.57071209  0.91765361    -0.74060
O165        O  0.39288113  0.47163233  0.03578763    -0.53320
O166        O  0.39830351  0.57211396  0.03690881    -0.98000
O167        O  0.46986003  0.65481434  0.01660257    -0.55220
O168        O  0.43259386  0.60000143  0.96635166    -0.74570
C169        C  0.43819052  0.59563311  0.93150252     0.97770
O170        O  0.51211696  0.48071523  0.88344617    -0.63390
O171        O  0.62747530  0.56280885  0.00837143    -0.58200
O172        O  0.54623135  0.54954437  0.90743906    -0.94880
O173        O  0.58428699  0.57771912  0.94941712    -0.93310
O174        O  0.62119343  0.44796653  0.00654104    -0.93660
O175        O  0.58054745  0.40977586  0.95626940    -0.92450
C176        C  0.57491280  0.56902583  0.91616790     1.16610
H177        H  0.59011152  0.50149648  0.06052820     0.32560
H178        H  0.49816411  0.42636947  0.96404261     0.43410
H179        H  0.50880300  0.60009119  0.96389202     0.36930
H180        H  0.44516642  0.51849379  0.08054492     0.33410
H181        H  0.56695408  0.35378444  0.01499131     0.25200
H182        H  0.38123046  0.44403561  0.03365617     0.31140
H183        H  0.38707573  0.59745249  0.02542951     0.37050
H184        H  0.63047766  0.42156164  0.01805093     0.31510
H185        H  0.63564964  0.59140917  0.01426626     0.30390
H186        H  0.58660862  0.65100684  0.00693155     0.32070
H187        H  0.44591323  0.66682543  0.01272027     0.31030
H188        H  0.56637263  0.42213148  0.93545819     0.35030
H189        H  0.53813622  0.47772265  0.88323977     0.27770
H190        H  0.50963039  0.53017999  0.16678677     0.32000
H191        H  0.42600175  0.63508438  0.07373608     0.34850
H192        H  0.63517297  0.54499006  0.02990547     0.27460
H193        H  0.50392759  0.45135580  0.88615300     0.40330
H194        H  0.46618381  0.36913918  0.03549278     0.30390
H195        H  0.53145266  0.36269850  0.03557695     0.38000
H196        H  0.48162490  0.65897055  0.99221402     0.29850
H197        H  0.39181536  0.47779410  0.06274113     0.29920
H198        H  0.47387111  0.54080874  0.14622074     0.30180
Zr199      Zr  0.52435655  0.91144018  0.49232730     2.17510
O200        O  0.49953343  0.84405688  0.51160052    -0.52170
O201        O  0.56819148  0.88544974  0.44858441    -0.75380
O202        O  0.48510706  0.88581829  0.44379080    -0.82160
O203        O  0.58534160  0.91339445  0.57414588    -0.83910
O204        O  0.46393565  0.94445212  0.41445487    -0.79530
O205        O  0.56343647  0.86849496  0.53127715    -0.91170
O206        O  0.59799672  0.94179949  0.42507670    -0.77130
O207        O  0.52591908  0.96385805  0.44435209    -0.86620
O208        O  0.57484615  0.95365134  0.50301322    -0.86310
O209        O  0.47008876  0.95050605  0.49869723    -0.73070
O210        O  0.51560175  0.94086769  0.55316504    -0.85200
Zr211      Zr  0.51522249  0.07745824  0.52193755     2.26420
Zr212      Zr  0.47367175  0.00461755  0.45171894     2.06270
Zr213      Zr  0.56579923  0.98403239  0.56242109     2.10050
Zr214      Zr  0.57631979  0.00550118  0.45481875     1.78760
O215        O  0.55923558  0.96968008  0.62903513    -0.94010
O216        O  0.56920608  0.01962040  0.38806295    -0.41810
O217        O  0.56875843  0.03719383  0.51475877    -0.78450
O218        O  0.52414690  0.04807661  0.46059545    -0.97130
O219        O  0.46508645  0.03473606  0.51130015    -0.90440
O220        O  0.51320379  0.02429400  0.56968654    -0.93280
C221        C  0.59175541  0.90217844  0.42744301     1.00470
C222        C  0.58248589  0.87715556  0.55973098     1.13400
C223        C  0.46710832  0.90459848  0.41789033     1.04180
O224        O  0.48300578  0.03624128  0.39006687    -0.95430
O225        O  0.44146315  0.06769758  0.46410586    -0.91180
O226        O  0.48233906  0.11610774  0.47359432    -0.84320
C227        C  0.45449832  0.10360244  0.45704177     1.10820
O228        O  0.43929673  0.91596492  0.58269922    -0.97410
Zr229      Zr  0.46262658  0.98231193  0.55856954     1.88940
O230        O  0.46758939  0.10274461  0.56252523    -0.74060
O231        O  0.41106972  0.99713925  0.43729355    -0.53320
O232        O  0.40142259  0.97602644  0.53829964    -0.98000
O233        O  0.46326859  0.97602777  0.62663208    -0.55220
O234        O  0.43383748  0.04665288  0.57950664    -0.74570
C235        C  0.44060587  0.08619723  0.57882438     0.97770
O236        O  0.54190422  0.14648939  0.51137874    -0.63390
O237        O  0.63002218  0.98644328  0.56618583    -0.58200
O238        O  0.55665238  0.10350100  0.56861393    -0.94880
O239        O  0.58523387  0.04606355  0.59248560    -0.93310
O240        O  0.63901246  0.00417714  0.47011525    -0.93660
O241        O  0.60673859  0.06890260  0.43427049    -0.92450
C242        C  0.57962777  0.08568825  0.59035340     1.16610
H243        H  0.59633106  0.93715139  0.50279048     0.32560
H244        H  0.52496811  0.07002014  0.44160214     0.43410
H245        H  0.51239322  0.03682927  0.59399787     0.36930
H246        H  0.45018220  0.93261282  0.49381877     0.33410
H247        H  0.59234057  0.01229519  0.37710881     0.25200
H248        H  0.40927424  0.99878298  0.40973842     0.31140
H249        H  0.38724449  0.98677095  0.55926128     0.37050
H250        H  0.65082607  0.99581351  0.44677664     0.31510
H251        H  0.63590772  0.97535277  0.59149454     0.30390
H252        H  0.58369222  0.96751805  0.63876545     0.32070
H253        H  0.43867120  0.98204670  0.63419364     0.31030
H254        H  0.59373941  0.09206232  0.44629106     0.35030
H255        H  0.56707031  0.14042788  0.50619342     0.27770
H256        H  0.50522157  0.82468180  0.49114797     0.32000
H257        H  0.41637241  0.92293126  0.59429474     0.34850
H258        H  0.63855084  0.96452128  0.54912923     0.27460
H259        H  0.53284830  0.15798807  0.48730987     0.40330
H260        H  0.48276613  0.01240700  0.37273161     0.30390
H261        H  0.55312396  0.99746936  0.37931681     0.38000
H262        H  0.47675563  0.00039131  0.63553265     0.29850
H263        H  0.40502863  0.96779476  0.44419407     0.29920
H264        H  0.47363245  0.84813532  0.51010835     0.30180
Zr265      Zr  0.00559816  0.49644104  0.93775705     2.17510
O266        O  0.01909716  0.52844746  0.87716358    -0.52170
O267        O  0.96554938  0.44485326  0.91425940    -0.75380
O268        O  0.05240518  0.45549455  0.90537278    -0.82160
O269        O  0.93227174  0.57918918  0.95997028    -0.83910
O270        O  0.08598226  0.42181171  0.94998108    -0.79530
O271        O  0.95493413  0.54138300  0.91233986    -0.91170
O272        O  0.93978599  0.41350429  0.96431509    -0.77130
O273        O  0.01515672  0.43608149  0.97828064    -0.86620
O274        O  0.95931026  0.49555395  0.98248376    -0.86310
O275        O  0.06214042  0.50319331  0.96862503    -0.73070
O276        O  0.01046405  0.56138111  0.97027097    -0.85200
Zr277      Zr  0.03050571  0.50602478  0.08594711     2.26420
Zr278      Zr  0.07049828  0.44362372  0.01080776     2.06270
Zr279      Zr  0.96497331  0.55872416  0.01618228     2.10050
Zr280      Zr  0.96813256  0.43554437  0.02165339     1.78760
O281        O  0.96808124  0.63507690  0.01363226    -0.94010
O282        O  0.97875610  0.36005696  0.02006132    -0.41810
O283        O  0.97365963  0.49849464  0.05640042    -0.78450
O284        O  0.02349695  0.44108839  0.05425083    -0.97130
O285        O  0.07672563  0.50803014  0.04178198    -0.90440
O286        O  0.02076266  0.56662480  0.04617005    -0.93280
C287        C  0.94289621  0.42011206  0.92896533     1.00470
C288        C  0.93223655  0.56826776  0.92564419     1.13400
C289        C  0.07843492  0.43131883  0.91607122     1.04180
O290        O  0.07365552  0.36723085  0.01164396    -0.95430
O291        O  0.09855011  0.42027968  0.07047857    -0.91180
O292        O  0.07630086  0.46094291  0.11613558    -0.84320
C293        C  0.09698670  0.43136795  0.10497887     1.10820
O294        O  0.08542908  0.59596981  0.94081490    -0.97410
Zr295      Zr  0.06638359  0.56717203  0.00102111     1.88940
O296        O  0.07452001  0.55469827  0.10707616    -0.74060
O297        O  0.13398893  0.45350961  0.00567606    -0.53320
O298        O  0.12983136  0.55978081  0.99198604    -0.98000
O299        O  0.05549868  0.64280090  0.99820112    -0.55220
O300        O  0.09290807  0.59294949  0.05667151    -0.74570
C301        C  0.09333006  0.58327058  0.09147743     0.97770
O302        O  0.01077442  0.47502379  0.14510977    -0.63390
O303        O  0.90177335  0.55755950  0.02861451    -0.58200
O304        O  0.99224796  0.55128241  0.12098842    -0.94880
O305        O  0.95024215  0.57454977  0.07951616    -0.93310
O306        O  0.90566623  0.44653878  0.03427781    -0.93660
O307        O  0.94757355  0.39989813  0.07815976    -0.92450
C308        C  0.96333635  0.57019400  0.11238794     1.16610
H309        H  0.93634513  0.49457896  0.97077264     0.32560
H310        H  0.02641547  0.41753829  0.07146027     0.43410
H311        H  0.02100954  0.59205747  0.06045160     0.36930
H312        H  0.08087069  0.50412788  0.95047480     0.33410
H313        H  0.95515857  0.34772994  0.01605030     0.25200
H314        H  0.14345389  0.42566253  0.99875453     0.31140
H315        H  0.13984086  0.58704766  0.99938328     0.37050
H316        H  0.89370727  0.42229920  0.02297652     0.31510
H317        H  0.89299391  0.58596149  0.02137275     0.30390
H318        H  0.94434287  0.64465181  0.02135998     0.32070
H319        H  0.07879622  0.65555520  0.00299453     0.31030
H320        H  0.95472973  0.41850707  0.09864335     0.35030
H321        H  0.98467565  0.47600384  0.14390890     0.27770
H322        H  0.01559666  0.50584002  0.85893522     0.32000
H323        H  0.10199614  0.61891138  0.94648625     0.34850
H324        H  0.89165346  0.53870825  0.00976245     0.27460
H325        H  0.01637781  0.44467326  0.14356403     0.40330
H326        H  0.05476856  0.35827355  0.02898894     0.30390
H327        H  0.99132660  0.35557956  0.99627944     0.38000
H328        H  0.04159780  0.64899277  0.02078065     0.29850
H329        H  0.13711909  0.47148952  0.98309039     0.29920
H330        H  0.04488861  0.53318374  0.87759442     0.30180
Zr331      Zr  0.95835259  0.97715050  0.48949905     2.17510
O332        O  0.90011935  0.99594553  0.51291508    -0.52170
O333        O  0.93994685  0.92712390  0.44373436    -0.75380
O334        O  0.92638826  0.02272552  0.44550948    -0.82160
O335        O  0.97347964  0.89922256  0.56843976    -0.83910
O336        O  0.96671598  0.06068870  0.41248851    -0.79530
O337        O  0.92950114  0.92643138  0.53233669    -0.91170
O338        O  0.98574012  0.91638711  0.40439418    -0.77130
O339        O  0.99575426  0.98524537  0.43651189    -0.86620
O340        O  0.99986165  0.92069129  0.49126103    -0.86310
O341        O  0.98516723  0.04531082  0.49453760    -0.73070
O342        O  0.98926287  0.98648878  0.54726703    -0.85200
Zr343      Zr  0.09642500  0.00591529  0.49935368     2.26420
Zr344      Zr  0.02310477  0.05184799  0.44126577     2.06270
Zr345      Zr  0.03046361  0.92960291  0.54838616     2.10050
Zr346      Zr  0.03815532  0.93014659  0.43908411     1.78760
O347        O  0.03154407  0.93249189  0.61623399    -0.94010
O348        O  0.05511437  0.93829714  0.37378216    -0.41810
O349        O  0.06924979  0.93805642  0.49604966    -0.78450
O350        O  0.06624323  0.99701433  0.44149296    -0.97130
O351        O  0.05512645  0.06201065  0.49753987    -0.90440
O352        O  0.05956594  0.99612650  0.55296892    -0.93280
C353        C  0.95345792  0.91277607  0.41382055     1.00470
C354        C  0.94055435  0.90191963  0.55914373     1.13400
C355        C  0.93536953  0.04873879  0.41947416     1.04180
O356        O  0.02971885  0.05018988  0.37376490    -0.95430
O357        O  0.07618194  0.08805527  0.42349443    -0.91180
O358        O  0.12136395  0.06075174  0.45826574    -0.84320
C359        C  0.10880146  0.08595268  0.43280547     1.10820
O360        O  0.96375779  0.07695121  0.57844487    -0.97410
Zr361      Zr  0.01893371  0.05306436  0.55089595     1.88940
O362        O  0.12039005  0.05389131  0.54424253    -0.74060
O363        O  0.00936598  0.12670396  0.44211006    -0.53320
O364        O  0.00982916  0.12765898  0.53730302    -0.98000
O365        O  0.01807950  0.04405894  0.61868028    -0.55220
O366        O  0.07388161  0.08448926  0.57347111    -0.74570
C367        C  0.10714102  0.07948394  0.56761090     0.97770
O368        O  0.15193109  0.98299942  0.47157693    -0.63390
O369        O  0.03788995  0.85346047  0.54841847    -0.58200
O370        O  0.12906906  0.95809008  0.53894065    -0.94880
O371        O  0.09058227  0.90954725  0.56261633    -0.93310
O372        O  0.03245176  0.85418397  0.44551233    -0.93660
O373        O  0.09292556  0.89336933  0.42490175    -0.92450
C374        C  0.12145323  0.92479138  0.55761681     1.16610
H375        H  0.98820012  0.89381382  0.49079667     0.32560
H376        H  0.08221508  0.00040948  0.42073021     0.43410
H377        H  0.07351217  0.99660847  0.57558680     0.36930
H378        H  0.96708994  0.06687142  0.49341856     0.33410
H379        H  0.05084692  0.91042029  0.36289334     0.25200
H380        H  0.00641059  0.13502592  0.41548565     0.31140
H381        H  0.02116490  0.14215160  0.55836565     0.37050
H382        H  0.02973744  0.84432626  0.41961834     0.31510
H383        H  0.03683640  0.84469242  0.57505810     0.30390
H384        H  0.04068965  0.90460726  0.62453868     0.32070
H385        H  0.02505212  0.07169714  0.62843625     0.31030
H386        H  0.11124053  0.91535857  0.42558565     0.35030
H387        H  0.15145407  0.95190057  0.47280271     0.27770
H388        H  0.88325100  0.98763034  0.49324536     0.32000
H389        H  0.96998125  0.10130659  0.59387438     0.34850
H390        H  0.01593588  0.84249590  0.53728610     0.27460
H391        H  0.14955477  0.98970421  0.44456874     0.40330
H392        H  0.01435985  0.02705142  0.36567471     0.30390
H393        H  0.03666779  0.95667347  0.36241005     0.38000
H394        H  0.03829550  0.02527919  0.62483757     0.29850
H395        H  0.98533100  0.12865697  0.45268121     0.29920
H396        H  0.89939689  0.02706154  0.51256092     0.30180
Zr397      Zr  0.52713684  0.98366670  0.93468258     2.17510
O398        O  0.50158837  0.00293764  0.87407088    -0.52170
O399        O  0.56937959  0.93121390  0.90874227    -0.75380
O400        O  0.56350349  0.03516802  0.90033645    -0.82160
O401        O  0.44588637  0.91552771  0.95467587    -0.83910
O402        O  0.58924762  0.07255661  0.94589785    -0.79530
O403        O  0.47949906  0.94242170  0.90745780    -0.91170
O404        O  0.59996342  0.90148630  0.95726959    -0.77130
O405        O  0.57836774  0.98596870  0.97353007    -0.86620
O406        O  0.52344926  0.92505577  0.97684606    -0.86310
O407        O  0.52237495  0.04934104  0.96770661    -0.73070
O408        O  0.47406808  0.99459983  0.97078414    -0.85200
Zr409      Zr  0.51904249  0.00219073  0.08457713     2.26420
Zr410      Zr  0.57349695  0.04982160  0.00731107     2.06270
Zr411      Zr  0.47134240  0.93597496  0.01308370     2.10050
Zr412      Zr  0.57465206  0.92727881  0.01523027     1.78760
O413        O  0.40797854  0.94614308  0.02019064    -0.94010
O414        O  0.63805559  0.93555937  0.02328998    -0.41810
O415        O  0.52251415  0.93673825  0.05195578    -0.78450
O416        O  0.57242336  0.99141775  0.04967831    -0.97130
O417        O  0.52177678  0.06096185  0.04310538    -0.90440
O418        O  0.46734402  0.99977075  0.04660372    -0.93280
C419        C  0.59373319  0.90626552  0.92212118     1.00470
C420        C  0.45329260  0.92105504  0.92014270     1.13400
C421        C  0.58397129  0.06445377  0.91155286     1.04180
O422        O  0.63748984  0.04214843  0.00860370    -0.95430
O423        O  0.59200932  0.07802205  0.06621745    -0.91180
O424        O  0.55788309  0.05284667  0.11318702    -0.84320
C425        C  0.58270527  0.07627959  0.10060678     1.10820
O426        O  0.44289911  0.09093894  0.95005181    -0.97410
Zr427      Zr  0.47057963  0.05873783  0.00529978     1.88940
O428        O  0.47856855  0.05298941  0.11303937    -0.74060
O429        O  0.57797707  0.12618090  0.00445363    -0.53320
O430        O  0.48671022  0.13260074  0.00034071    -0.98000
O431        O  0.40637312  0.05354459  0.00392389    -0.55220
O432        O  0.45107323  0.08732737  0.06511127    -0.74570
C433        C  0.45673035  0.08105053  0.10033844     0.97770
O434        O  0.54823352  0.97275135  0.14018483    -0.63390
O435        O  0.46496772  0.86010765  0.00905286    -0.58200
O436        O  0.48185013  0.95371646  0.11833509    -0.94880
O437        O  0.46159210  0.90804557  0.07526179    -0.93310
O438        O  0.56097340  0.85264200  0.01727170    -0.93660
O439        O  0.59809779  0.89101219  0.07057406    -0.92450
C440        C  0.46614838  0.92006305  0.10886430     1.16610
H441        H  0.52222347  0.89894537  0.96358745     0.32560
H442        H  0.59259328  0.99227535  0.06621857     0.43410
H443        H  0.44630469  0.00044925  0.06169219     0.36930
H444        H  0.52272241  0.07270035  0.95009022     0.33410
H445        H  0.64833277  0.90795233  0.01685796     0.25200
H446        H  0.60221656  0.13190984  0.99558748     0.31140
H447        H  0.46776890  0.14781708  0.01354375     0.37050
H448        H  0.58251035  0.83855984  0.00799102     0.31510
H449        H  0.44389794  0.85311433  0.02412115     0.30390
H450        H  0.39837205  0.91735893  0.02231248     0.32070
H451        H  0.39772948  0.08109328  0.01263192     0.31030
H452        H  0.58962842  0.90788346  0.09170558     0.35030
H453        H  0.54338175  0.94223073  0.14017087     0.27770
H454        H  0.52000721  0.99644896  0.85550323     0.32000
H455        H  0.43061137  0.11644962  0.95882774     0.34850
H456        H  0.48513412  0.84824663  0.02352154     0.27460
H457        H  0.57368403  0.97422772  0.13428685     0.40330
H458        H  0.64393283  0.03396503  0.98298011     0.30390
H459        H  0.64515982  0.95460967  0.00253787     0.38000
H460        H  0.40036948  0.03364641  0.02445239     0.29850
H461        H  0.56239501  0.13538290  0.98353751     0.29920
H462        H  0.49951453  0.03397114  0.87381539     0.30180
Zr463      Zr  0.10012509  0.99904101  0.00897389     2.17510
O464        O  0.15534684  0.02714257  0.03272737    -0.52170
O465        O  0.12762756  0.95145881  0.96505853    -0.75380
O466        O  0.12864165  0.94913278  0.05343179    -0.82160
O467        O  0.08461730  0.09342355  0.94263122    -0.83910
O468        O  0.08544068  0.92029716  0.08951426    -0.79530
O469        O  0.12833379  0.05342982  0.96933884    -0.91170
O470        O  0.08290725  0.91872467  0.93503997    -0.77130
O471        O  0.06312465  0.93874884  0.01170695    -0.86620
O472        O  0.06256314  0.00249805  0.95533597    -0.86310
O473        O  0.06712250  0.00429345  0.06614125    -0.73070
O474        O  0.06627071  0.06301826  0.01389922    -0.85200
Zr475      Zr  0.95641589  0.01107396  0.01993355     2.26420
Zr476      Zr  0.02895945  0.94462004  0.06714848     2.06270
Zr477      Zr  0.02798547  0.06503027  0.96082306     2.10050
Zr478      Zr  0.02577681  0.94256970  0.95850123     1.78760
O479        O  0.02479404  0.14126087  0.96394907    -0.94010
O480        O  0.02595207  0.86655132  0.96801978    -0.41810
O481        O  0.99031401  0.00513218  0.96322709    -0.78450
O482        O  0.99050474  0.94691756  0.01400014    -0.97130
O483        O  0.99501683  0.00750111  0.07268169    -0.90440
O484        O  0.99426742  0.07071986  0.01677707    -0.93280
C485        C  0.11587292  0.92592260  0.94071804     1.00470
C486        C  0.11727159  0.08461467  0.94868518     1.13400
C487        C  0.11773593  0.92514736  0.08037652     1.04180
O488        O  0.02830763  0.86826497  0.06383849    -0.95430
O489        O  0.97395583  0.91767026  0.09008303    -0.91180
O490        O  0.93015019  0.95940304  0.06573044    -0.84320
C491        C  0.94149134  0.92851248  0.08695423     1.10820
O492        O  0.08546702  0.09945347  0.09448740    -0.97410
Zr493      Zr  0.03224251  0.06712826  0.06992708     1.88940
O494        O  0.93161787  0.05826397  0.06687621    -0.74060
O495        O  0.02773174  0.94743710  0.13503694    -0.53320
O496        O  0.03809526  0.05173584  0.13661052    -0.98000
O497        O  0.03197524  0.14344213  0.06184468    -0.55220
O498        O  0.97704916  0.08966511  0.09723223    -0.74570
C499        C  0.94416830  0.08272590  0.09190095     0.97770
O500        O  0.90143883  0.98364595  0.99471846    -0.63390
O501        O  0.02825366  0.06249297  0.89282033    -0.58200
O502        O  0.92798593  0.05955526  0.97173149    -0.94880
O503        O  0.97168400  0.08772419  0.93617725    -0.93310
O504        O  0.02017099  0.95793779  0.89186217    -0.93660
O505        O  0.97538938  0.90749788  0.93081394    -0.92450
C506        C  0.93899829  0.08323222  0.94410716     1.16610
H507        H  0.07611879  0.00324903  0.93257839     0.32560
H508        H  0.97489067  0.92306076  0.01480133     0.43410
H509        H  0.98043364  0.09634139  0.01631942     0.36930
H510        H  0.08302339  0.00324318  0.08727519     0.33410
H511        H  0.03131385  0.85508946  0.94315597     0.25200
H512        H  0.03628213  0.91947026  0.14384931     0.31140
H513        H  0.02800068  0.07657291  0.14903929     0.37050
H514        H  0.02352214  0.93048646  0.87979405     0.31510
H515        H  0.02853746  0.09231646  0.88441546     0.30390
H516        H  0.02374867  0.15110557  0.93756596     0.32070
H517        H  0.02445514  0.15427798  0.08630674     0.31030
H518        H  0.95454546  0.92198061  0.94125283     0.35030
H519        H  0.90717543  0.97752058  0.96844558     0.27770
H520        H  0.17349562  0.00557971  0.02733292     0.32000
H521        H  0.07768407  0.11676179  0.11563580     0.34850
H522        H  0.05185289  0.05153196  0.88612978     0.27460
H523        H  0.89821118  0.95546482  0.00628929     0.40330
H524        H  0.05141194  0.86044684  0.05310455     0.30390
H525        H  0.04746195  0.86042921  0.98299565     0.38000
H526        H  0.01193656  0.15015913  0.04490757     0.29850
H527        H  0.04682668  0.96698759  0.14165304     0.29920
H528        H  0.15295150  0.02643563  0.06025228     0.30180
Zr529      Zr  0.70811281  0.72634911  0.27543786     2.17510
O530        O  0.64916882  0.75318680  0.26049965    -0.52170
O531        O  0.68753243  0.67304426  0.31925690    -0.75380
O532        O  0.67767261  0.68294924  0.22994941    -0.82160
O533        O  0.72156225  0.81066789  0.34828247    -0.83910
O534        O  0.71884570  0.65402177  0.19185083    -0.79530
O535        O  0.67881741  0.77461301  0.31808085    -0.91170
O536        O  0.73399671  0.64132128  0.34879431    -0.77130
O537        O  0.74667495  0.66728999  0.26980834    -0.86620
O538        O  0.74761902  0.72791585  0.32728982    -0.86310
O539        O  0.73694828  0.73648721  0.21627300    -0.73070
O540        O  0.73774229  0.79256798  0.26951603    -0.85200
Zr541      Zr  0.84662861  0.74550273  0.25563603     2.26420
Zr542      Zr  0.77657061  0.67773647  0.21168726     2.06270
Zr543      Zr  0.77820264  0.79268879  0.32077708     2.10050
Zr544      Zr  0.78682083  0.66995126  0.32097227     1.78760
O545        O  0.78214186  0.86875079  0.31382592    -0.94010
O546        O  0.79131471  0.59471660  0.31041437    -0.41810
O547        O  0.81777825  0.73472153  0.31472745    -0.78450
O548        O  0.81702164  0.67914166  0.26296718    -0.97130
O549        O  0.80687881  0.74288581  0.20437823    -0.90440
O550        O  0.80784746  0.80402910  0.26265798    -0.93280
C551        C  0.70087967  0.64744397  0.34367100     1.00470
C552        C  0.68919411  0.80114289  0.34240198     1.13400
C553        C  0.68692297  0.66031288  0.20225724     1.04180
O554        O  0.77942584  0.60125866  0.21218069    -0.95430
O555        O  0.83472835  0.65566609  0.19131765    -0.91180
O556        O  0.87671523  0.69691389  0.21623808    -0.84320
C557        C  0.86709052  0.66605987  0.19655308     1.10820
O558        O  0.71219848  0.83007450  0.18844003    -0.97410
Zr559      Zr  0.76826934  0.80131161  0.21122248     1.88940
O560        O  0.86895153  0.79444159  0.20665720    -0.74060
O561        O  0.77541581  0.68261277  0.14375671    -0.53320
O562        O  0.76304800  0.78873486  0.14454068    -0.98000
O563        O  0.76364736  0.87709826  0.21898442    -0.55220
O564        O  0.82142502  0.83089720  0.18391463    -0.74570
C565        C  0.85464195  0.82288981  0.18504952     0.97770
O566        O  0.90152083  0.71833587  0.28330488    -0.63390
O567        O  0.78389167  0.80273571  0.38790845    -0.58200
O568        O  0.87504785  0.79363224  0.29694187    -0.94880
O569        O  0.83710888  0.79573819  0.34562099    -0.93310
O570        O  0.79513858  0.68119198  0.38751057    -0.93660
O571        O  0.84128308  0.63889835  0.34572058    -0.92450
C572        C  0.86644228  0.80442890  0.32990935     1.16610
H573        H  0.73535539  0.72644410  0.35084488     0.32560
H574        H  0.83378111  0.65623123  0.26170331     0.43410
H575        H  0.82080760  0.83005380  0.26245293     0.36930
H576        H  0.71990921  0.73638736  0.19618082     0.33410
H577        H  0.78842080  0.58143529  0.33544140     0.25200
H578        H  0.77095571  0.65355446  0.13566304     0.31140
H579        H  0.77152424  0.81483344  0.13216696     0.37050
H580        H  0.78774630  0.65455723  0.39979401     0.31510
H581        H  0.77219573  0.82991910  0.39304540     0.30390
H582        H  0.77004690  0.87984557  0.33603910     0.32070
H583        H  0.76909934  0.88941275  0.19408503     0.31030
H584        H  0.85999910  0.64962779  0.32895617     0.35030
H585        H  0.89572764  0.71543688  0.31011971     0.27770
H586        H  0.63299475  0.72927396  0.26468395     0.32000
H587        H  0.71801742  0.84790563  0.16638668     0.34850
H588        H  0.76857902  0.78117905  0.39960266     0.27460
H589        H  0.90427792  0.68876967  0.27573350     0.40330
H590        H  0.75846366  0.59209796  0.22648974     0.30390
H591        H  0.76936073  0.58770987  0.29689581     0.38000
H592        H  0.78409595  0.88462841  0.23470265     0.29850
H593        H  0.75339275  0.69820061  0.13751516     0.29920
H594        H  0.64900986  0.75838663  0.23316142     0.30180
Zr595      Zr  0.83168008  0.26023335  0.76832698     2.17510
O596        O  0.88995709  0.23295288  0.75278715    -0.52170
O597        O  0.85430278  0.31095164  0.81168680    -0.75380
O598        O  0.86071891  0.30431553  0.71891013    -0.82160
O599        O  0.81424500  0.17141686  0.84157665    -0.83910
O600        O  0.81758387  0.33981391  0.68691215    -0.79530
O601        O  0.85832753  0.20943102  0.81544006    -0.91170
O602        O  0.80854962  0.34160434  0.84211766    -0.77130
O603        O  0.79366433  0.32068237  0.76421389    -0.86620
O604        O  0.79196534  0.25792950  0.81963127    -0.86310
O605        O  0.79997105  0.25483653  0.71007720    -0.73070
O606        O  0.79937725  0.19595826  0.76205735    -0.85200
Zr607      Zr  0.68942798  0.24895584  0.75223365     2.26420
Zr608      Zr  0.76131471  0.31484259  0.70721881     2.06270
Zr609      Zr  0.75951214  0.19481708  0.81355918     2.10050
Zr610      Zr  0.75386176  0.31736255  0.81536572     1.78760
O611        O  0.76262293  0.11843070  0.81317468    -0.94010
O612        O  0.75207752  0.39326664  0.80528454    -0.41810
O613        O  0.72046204  0.25411243  0.81069396    -0.78450
O614        O  0.72111288  0.31366258  0.75826215    -0.97130
O615        O  0.72878672  0.25193923  0.70081086    -0.90440
O616        O  0.72743163  0.18885806  0.75657370    -0.93280
C617        C  0.84152206  0.33529217  0.83643823     1.00470
C618        C  0.84686206  0.18113589  0.83902925     1.13400
C619        C  0.85000628  0.33055903  0.69301558     1.04180
O620        O  0.75699778  0.39105170  0.71041711    -0.95430
O621        O  0.70572685  0.33542937  0.67939198    -0.91180
O622        O  0.66228908  0.29419648  0.70354692    -0.84320
C623        C  0.67360122  0.32344271  0.68135776     1.10820
O624        O  0.81925450  0.16293081  0.67655314    -0.97410
Zr625      Zr  0.76624826  0.19212397  0.70490700     1.88940
O626        O  0.66418039  0.20076344  0.70837626    -0.74060
O627        O  0.76363158  0.31253882  0.63928933    -0.53320
O628        O  0.76938191  0.20547415  0.63774345    -0.98000
O629        O  0.77133699  0.11670167  0.71737176    -0.55220
O630        O  0.71014517  0.16977014  0.67892083    -0.74570
C631        C  0.67698444  0.17579157  0.68418809     0.97770
O632        O  0.63519677  0.28070589  0.77543967    -0.63390
O633        O  0.75577870  0.19985848  0.88124889    -0.58200
O634        O  0.65851078  0.20106281  0.79514328    -0.94880
O635        O  0.70194044  0.16985865  0.83009104    -0.93310
O636        O  0.74667944  0.30361963  0.88201451    -0.93660
O637        O  0.70090937  0.35019686  0.84028621    -0.92450
C638        C  0.66946324  0.17596496  0.82141151     1.16610
H639        H  0.80474546  0.25775555  0.84300250     0.32560
H640        H  0.70502562  0.33731170  0.75632821     0.43410
H641        H  0.71398035  0.16319920  0.75650123     0.36930
H642        H  0.81613189  0.25546051  0.68932175     0.33410
H643        H  0.75551389  0.40504456  0.83041526     0.25200
H644        H  0.76859901  0.34175896  0.63100936     0.31140
H645        H  0.75898099  0.18036545  0.62622437     0.37050
H646        H  0.74949876  0.33134140  0.89368357     0.31510
H647        H  0.76255513  0.17159356  0.89101133     0.30390
H648        H  0.75836689  0.10958296  0.83942078     0.32070
H649        H  0.76719319  0.10342093  0.69302274     0.31030
H650        H  0.68116191  0.33443052  0.82921945     0.35030
H651        H  0.63718025  0.27854617  0.80298500     0.27770
H652        H  0.90635403  0.25650271  0.75695210     0.32000
H653        H  0.81104648  0.14250984  0.65797353     0.34850
H654        H  0.77535856  0.21821063  0.88893652     0.27460
H655        H  0.63753953  0.31115097  0.76986378     0.40330
H656        H  0.77972408  0.39994491  0.72133719     0.30390
H657        H  0.77424315  0.39985116  0.79195734     0.38000
H658        H  0.75045107  0.10916551  0.73247598     0.29850
H659        H  0.78537991  0.29653645  0.63357101     0.29920
H660        H  0.88957744  0.22933502  0.72539498     0.30180
Zr661      Zr  0.26478069  0.74849107  0.67526643     2.17510
O662        O  0.28095447  0.77415685  0.61301739    -0.52170
O663        O  0.22019754  0.70101904  0.65070108    -0.75380
O664        O  0.30539509  0.70235955  0.64360958    -0.82160
O665        O  0.20316076  0.84066792  0.68952093    -0.83910
O666        O  0.34521845  0.68061462  0.68754903    -0.79530
O667        O  0.23046343  0.80306635  0.64464065    -0.91170
O668        O  0.19737320  0.66509247  0.70004516    -0.77130
O669        O  0.27072844  0.68887523  0.71600534    -0.86620
O670        O  0.21614745  0.75170277  0.71694858    -0.86310
O671        O  0.32096464  0.75760231  0.70560646    -0.73070
O672        O  0.27040389  0.81405660  0.70674803    -0.85200
Zr673      Zr  0.28175052  0.76654322  0.82311946     2.26420
Zr674      Zr  0.32484464  0.69923675  0.74868842     2.06270
Zr675      Zr  0.22266599  0.81582361  0.74971186     2.10050
Zr676      Zr  0.22230067  0.69243461  0.75769376     1.78760
O677        O  0.22777234  0.89195043  0.75060091    -0.94010
O678        O  0.23381069  0.61708848  0.76218354    -0.41810
O679        O  0.22649721  0.75680754  0.79146204    -0.78450
O680        O  0.27665170  0.70008581  0.79174304    -0.97130
O681        O  0.32995531  0.76376042  0.78069266    -0.90440
O682        O  0.27717979  0.82524091  0.78130755    -0.93280
C683        C  0.19955743  0.67307435  0.66476354     1.00470
C684        C  0.21021850  0.83273927  0.65551644     1.13400
C685        C  0.33376661  0.68340421  0.65398407     1.04180
O686        O  0.31536328  0.62541435  0.76423913    -0.95430
O687        O  0.36137999  0.70581318  0.80303550    -0.91180
O688        O  0.32381289  0.71711110  0.85054932    -0.84320
C689        C  0.35248995  0.70223187  0.83723403     1.10820
O690        O  0.34593791  0.85341011  0.68042247    -0.97410
Zr691      Zr  0.32530393  0.82171391  0.73884094     1.88940
O692        O  0.32776256  0.81354775  0.84536853    -0.74060
O693        O  0.38585633  0.67384122  0.74767102    -0.53320
O694        O  0.38767348  0.80464224  0.73121977    -0.98000
O695        O  0.31870836  0.89799929  0.73586795    -0.55220
O696        O  0.35356545  0.84544082  0.79502877    -0.74570
C697        C  0.35055842  0.83818488  0.83012903     0.97770
O698        O  0.26166962  0.74077668  0.88414970    -0.63390
O699        O  0.15841742  0.81748616  0.75212429    -0.58200
O700        O  0.24008014  0.81345712  0.85537683    -0.94880
O701        O  0.20365108  0.83843555  0.80989347    -0.93310
O702        O  0.15880165  0.70224256  0.76369501    -0.93660
O703        O  0.19901281  0.66095706  0.81490169    -0.92450
C704        C  0.21321164  0.83547720  0.84416462     1.16610
H705        H  0.19390744  0.75145321  0.70368994     0.32560
H706        H  0.27898995  0.67708188  0.80961691     0.43410
H707        H  0.27725679  0.85118910  0.79485459     0.36930
H708        H  0.33984539  0.75766295  0.68765283     0.33410
H709        H  0.21036319  0.60401014  0.75921166     0.25200
H710        H  0.38550195  0.64616463  0.73552763     0.31140
H711        H  0.40048364  0.82935837  0.74052806     0.37050
H712        H  0.14850015  0.67525892  0.75594205     0.31510
H713        H  0.15190210  0.84711145  0.74638755     0.30390
H714        H  0.20415561  0.90214289  0.75813634     0.32070
H715        H  0.34230976  0.90889599  0.74238013     0.31030
H716        H  0.21112245  0.67591315  0.83521272     0.35030
H717        H  0.23559023  0.74041321  0.88235840     0.27770
H718        H  0.27526164  0.75123401  0.59573353     0.32000
H719        H  0.36772269  0.86872484  0.68681968     0.34850
H720        H  0.15048127  0.80187232  0.73002329     0.27460
H721        H  0.26816660  0.71060449  0.88556043     0.40330
H722        H  0.32069044  0.61056405  0.74087374     0.30390
H723        H  0.24639716  0.61038212  0.73885948     0.38000
H724        H  0.30378147  0.90521459  0.75744474     0.29850
H725        H  0.39850390  0.69278142  0.73011610     0.29920
H726        H  0.30703490  0.77593146  0.61308034     0.30180
Zr727      Zr  0.25392785  0.27574553  0.82568008     2.17510
O728        O  0.26647947  0.26053412  0.89142914    -0.52170
O729        O  0.20687575  0.32581244  0.84280047    -0.75380
O730        O  0.29998267  0.32375073  0.85273463    -0.82160
O731        O  0.19731082  0.17564149  0.81830441    -0.83910
O732        O  0.32976803  0.35476359  0.80488842    -0.79530
O733        O  0.22021593  0.22145717  0.85994748    -0.91170
O734        O  0.17884954  0.35111000  0.79073565    -0.77130
O735        O  0.25488218  0.33105509  0.78013026    -0.86620
O736        O  0.20469708  0.26601213  0.78452377    -0.86310
O737        O  0.30917216  0.26473370  0.79404354    -0.73070
O738        O  0.26157671  0.20822112  0.79637188    -0.85200
Zr739      Zr  0.26746121  0.24620035  0.67719699     2.26420
Zr740      Zr  0.30947967  0.32057496  0.74871008     2.06270
Zr741      Zr  0.21193865  0.19941774  0.75573791     2.10050
Zr742      Zr  0.20656049  0.32054204  0.73820563     1.78760
O743        O  0.21058948  0.12324602  0.76247097    -0.94010
O744        O  0.21368475  0.39598864  0.72839341    -0.41810
O745        O  0.21240093  0.25398040  0.70913965    -0.78450
O746        O  0.26083993  0.31364634  0.70612793    -0.97130
O747        O  0.31682461  0.25505366  0.71796566    -0.90440
O748        O  0.26583585  0.19021439  0.72231557    -0.93280
C749        C  0.18301676  0.34853610  0.82602554     1.00470
C750        C  0.20254663  0.18838593  0.85159854     1.13400
C751        C  0.32366257  0.34958544  0.83984699     1.04180
O752        O  0.30431299  0.39589243  0.73644869    -0.95430
O753        O  0.33129704  0.33526002  0.68787392    -0.91180
O754        O  0.30162065  0.29888542  0.64385803    -0.84320
C755        C  0.32315724  0.32730716  0.65412746     1.10820
O756        O  0.33639418  0.16647356  0.82043831    -0.97410
Zr757      Zr  0.31546563  0.19907583  0.76216405     1.88940
O758        O  0.31502064  0.20108556  0.65404939    -0.74060
O759        O  0.37378957  0.31956725  0.75113002    -0.53320
O760        O  0.37712389  0.21719586  0.77187724    -0.98000
O761        O  0.31075614  0.12267246  0.76614314    -0.55220
O762        O  0.34554004  0.17701933  0.70498634    -0.74570
C763        C  0.34100553  0.18075181  0.66937126     0.97770
O764        O  0.24183277  0.26665013  0.61641971    -0.63390
O765        O  0.14785370  0.20731155  0.75520238    -0.58200
O766        O  0.22661280  0.19546060  0.64991234    -0.94880
O767        O  0.19258791  0.16970462  0.69714908    -0.93310
O768        O  0.14381597  0.30583958  0.73219005    -0.93660
O769        O  0.18243150  0.34603483  0.67871174    -0.92450
C770        C  0.20148333  0.17225293  0.66261599     1.16610
H771        H  0.18271646  0.26657803  0.79803718     0.32560
H772        H  0.26108026  0.33613859  0.68764495     0.43410
H773        H  0.26664072  0.16331718  0.71028447     0.36930
H774        H  0.32869590  0.26735404  0.81123294     0.33410
H775        H  0.18945922  0.40775524  0.72959610     0.25200
H776        H  0.38064773  0.34946969  0.75239875     0.31140
H777        H  0.39045629  0.19092066  0.76743265     0.37050
H778        H  0.13188165  0.33334606  0.73519276     0.31510
H779        H  0.13891634  0.17943484  0.74805358     0.30390
H780        H  0.18520015  0.11629335  0.76390153     0.32070
H781        H  0.32457522  0.11203272  0.74488864     0.31030
H782        H  0.19564888  0.33033209  0.65964695     0.35030
H783        H  0.21598223  0.26376537  0.61927216     0.27770
H784        H  0.26241958  0.28731346  0.90441460     0.32000
H785        H  0.35756027  0.14976651  0.81393766     0.34850
H786        H  0.14108819  0.20987612  0.78172524     0.27460
H787        H  0.24485627  0.29740175  0.61352437     0.40330
H788        H  0.29114163  0.40689582  0.75800224     0.30390
H789        H  0.22523915  0.40571311  0.75147338     0.38000
H790        H  0.28592878  0.11637827  0.75983893     0.29850
H791        H  0.37998407  0.30742191  0.77598440     0.29920
H792        H  0.29227320  0.25553642  0.89295023     0.30180
Zr793      Zr  0.35406513  0.74099485  0.25951989     2.17510
O794        O  0.40661978  0.70446092  0.23772071    -0.52170
O795        O  0.38184190  0.78751665  0.30247017    -0.75380
O796        O  0.38832568  0.78772534  0.22088653    -0.82160
O797        O  0.33739813  0.64517280  0.29876729    -0.83910
O798        O  0.34819838  0.83097567  0.19201832    -0.79530
O799        O  0.37791592  0.69459583  0.30651064    -0.91170
O800        O  0.33787856  0.82325727  0.33131934    -0.77130
O801        O  0.32007633  0.80409230  0.25740869    -0.86620
O802        O  0.31534606  0.73876068  0.31206767    -0.86310
O803        O  0.32461074  0.73912424  0.20037330    -0.73070
O804        O  0.31940868  0.67896383  0.25211991    -0.85200
Zr805      Zr  0.21410422  0.74011075  0.24405888     2.26420
Zr806      Zr  0.28974966  0.80177208  0.19929865     2.06270
Zr807      Zr  0.28013912  0.67798905  0.30389033     2.10050
Zr808      Zr  0.28078078  0.80096730  0.30885785     1.78760
O809        O  0.27452514  0.60260951  0.31581606    -0.94010
O810        O  0.27382713  0.87668164  0.30092690    -0.41810
O811        O  0.24476845  0.74037603  0.30246564    -0.78450
O812        O  0.24936108  0.80190786  0.25072447    -0.97130
O813        O  0.25350802  0.74154349  0.19232901    -0.90440
O814        O  0.24823267  0.67680471  0.24658991    -0.93280
C815        C  0.37050607  0.81477154  0.32534989     1.00470
C816        C  0.36487439  0.65896556  0.31491940     1.13400
C817        C  0.37982069  0.81965240  0.20051200     1.04180
O818        O  0.28174595  0.87775598  0.19798089    -0.95430
O819        O  0.23662258  0.82197879  0.16708826    -0.91180
O820        O  0.19058510  0.79036412  0.19690471    -0.84320
C821        C  0.20374477  0.81532368  0.17188427     1.10820
O822        O  0.34070106  0.64569717  0.17015221    -0.97410
Zr823      Zr  0.28760950  0.67885006  0.19479665     1.88940
O824        O  0.18759690  0.69303436  0.20081423    -0.74060
O825        O  0.30265227  0.79904099  0.13273783    -0.53320
O826        O  0.29219084  0.69514109  0.12825299    -0.98000
O827        O  0.28806212  0.60246996  0.20189381    -0.55220
O828        O  0.23110489  0.65809017  0.17045056    -0.74570
C829        C  0.19867187  0.66714508  0.17654980     0.97770
O830        O  0.15986014  0.77437310  0.26468611    -0.63390
O831        O  0.28651937  0.68513095  0.37137676    -0.58200
O832        O  0.18127231  0.69772712  0.29086732    -0.94880
O833        O  0.22177080  0.65783105  0.32239794    -0.93310
O834        O  0.28016691  0.78831907  0.37614599    -0.93660
O835        O  0.22862201  0.82864155  0.33961367    -0.92450
C836        C  0.19001684  0.67014679  0.31625013     1.16610
H837        H  0.32841656  0.73749747  0.33525521     0.32560
H838        H  0.23449436  0.82669050  0.24917090     0.43410
H839        H  0.23337215  0.65228646  0.24611212     0.36930
H840        H  0.34168886  0.73960593  0.18044526     0.33410
H841        H  0.28204359  0.88834498  0.32482771     0.25200
H842        H  0.30190130  0.82875546  0.12401965     0.31140
H843        H  0.28893492  0.66796148  0.11578846     0.37050
H844        H  0.28816279  0.81502542  0.38697535     0.31510
H845        H  0.27656379  0.65909794  0.38246123     0.30390
H846        H  0.26682187  0.59941764  0.34208861     0.32070
H847        H  0.27516624  0.59220927  0.17980776     0.31030
H848        H  0.20898185  0.82301857  0.32213349     0.35030
H849        H  0.16060044  0.77268660  0.29230808     0.27770
H850        H  0.42670208  0.72204427  0.24550047     0.32000
H851        H  0.33269153  0.62694704  0.15013073     0.34850
H852        H  0.31209059  0.68324244  0.37682172     0.27460
H853        H  0.16306477  0.80468230  0.25905484     0.40330
H854        H  0.30071248  0.88852097  0.21420416     0.30390
H855        H  0.29201013  0.88493434  0.28252946     0.38000
H856        H  0.27227148  0.59630805  0.22321170     0.29850
H857        H  0.32783439  0.79086642  0.13103267     0.29920
H858        H  0.40581933  0.70740908  0.21015571     0.30180
Zr859      Zr  0.69271861  0.25044013  0.25759296     2.17510
O860        O  0.63753220  0.22042633  0.28011440    -0.52170
O861        O  0.66597448  0.30320442  0.21719285    -0.75380
O862        O  0.66466329  0.29517039  0.30301462    -0.82160
O863        O  0.70369311  0.16686351  0.18543291    -0.83910
O864        O  0.70810939  0.32514649  0.33727350    -0.79530
O865        O  0.66164712  0.20354739  0.21672801    -0.91170
O866        O  0.71053375  0.33712131  0.18780170    -0.77130
O867        O  0.73025128  0.30994195  0.26021720    -0.86620
O868        O  0.72932448  0.24896285  0.20366477    -0.86310
O869        O  0.72468672  0.24198641  0.31503026    -0.73070
O870        O  0.72379723  0.18464477  0.26092699    -0.85200
Zr871      Zr  0.83344934  0.23464508  0.26821316     2.26420
Zr872      Zr  0.76400468  0.30039967  0.31605552     2.06270
Zr873      Zr  0.76191026  0.18472656  0.20803990     2.10050
Zr874      Zr  0.76716578  0.30758589  0.20702016     1.78760
O875        O  0.75920539  0.10841250  0.21235530    -0.94010
O876        O  0.77468908  0.38211263  0.21875634    -0.41810
O877        O  0.80059921  0.24354232  0.21088127    -0.78450
O878        O  0.80185382  0.30023111  0.26292585    -0.97130
O879        O  0.79579851  0.23587267  0.32117719    -0.90440
O880        O  0.79481874  0.17580367  0.26453985    -0.93280
C881        C  0.67770384  0.33143103  0.19460844     1.00470
C882        C  0.67158497  0.17683569  0.19254644     1.13400
C883        C  0.67580218  0.31888175  0.32903045     1.04180
O884        O  0.76669701  0.37682490  0.31407328    -0.95430
O885        O  0.82005812  0.32228274  0.33951581    -0.91180
O886        O  0.86237770  0.28009600  0.31478329    -0.84320
C887        C  0.85205251  0.31010279  0.33610005     1.10820
O888        O  0.70226542  0.14780655  0.34133269    -0.97410
Zr889      Zr  0.75699398  0.17772081  0.31743310     1.88940
O890        O  0.85737129  0.18086300  0.31036178    -0.74060
O891        O  0.76397569  0.29454833  0.38400803    -0.53320
O892        O  0.75319969  0.18892460  0.38441070    -0.98000
O893        O  0.75487794  0.10168824  0.31056809    -0.55220
O894        O  0.81156773  0.15175945  0.34243306    -0.74570
C895        C  0.84430966  0.15608806  0.33533511     0.97770
O896        O  0.88867328  0.26429868  0.24509077    -0.63390
O897        O  0.76462761  0.18718179  0.14006536    -0.58200
O898        O  0.86172358  0.19080571  0.22068405    -0.94880
O899        O  0.81861256  0.16174950  0.18504505    -0.93310
O900        O  0.76546767  0.29932745  0.13956991    -0.93660
O901        O  0.81847313  0.33545603  0.17449478    -0.92450
C902        C  0.85101695  0.16785438  0.19362136     1.16610
H903        H  0.71544286  0.25046432  0.18100683     0.32560
H904        H  0.81815877  0.32336681  0.26395358     0.43410
H905        H  0.80811239  0.14980166  0.26406436     0.36930
H906        H  0.70887926  0.24223215  0.33609141     0.33410
H907        H  0.77398412  0.39596275  0.19377195     0.25200
H908        H  0.75898650  0.32338352  0.39254788     0.31140
H909        H  0.75965175  0.16149354  0.39615356     0.37050
H910        H  0.75662113  0.32663906  0.12949380     0.31510
H911        H  0.75394258  0.16052205  0.13204078     0.30390
H912        H  0.76051980  0.09918778  0.18615791     0.32070
H913        H  0.76250183  0.08990375  0.33512395     0.31030
H914        H  0.83882016  0.32632472  0.19016974     0.35030
H915        H  0.88667195  0.26396859  0.21752634     0.27770
H916        H  0.61939054  0.24258481  0.27583319     0.32000
H917        H  0.70918173  0.12863537  0.36225542     0.34850
H918        H  0.74739947  0.20919356  0.13223591     0.27460
H919        H  0.88743441  0.29457875  0.25082287     0.40330
H920        H  0.74482418  0.38605207  0.30099573     0.30390
H921        H  0.75239949  0.39092843  0.23070112     0.38000
H922        H  0.77445955  0.09475361  0.29352049     0.29850
H923        H  0.74246920  0.27850244  0.39034300     0.29920
H924        H  0.64021671  0.21811045  0.30759449     0.30180
Zr925      Zr  0.35831204  0.25792567  0.26972196     2.17510
O926        O  0.41806713  0.28214999  0.28290730    -0.52170
O927        O  0.38251655  0.20858223  0.22401372    -0.75380
O928        O  0.38933786  0.21660699  0.31700018    -0.82160
O929        O  0.34436597  0.35256321  0.20631133    -0.83910
O930        O  0.34743711  0.18142376  0.34997890    -0.79530
O931        O  0.38660328  0.31359021  0.23702867    -0.91170
O932        O  0.33597220  0.17926684  0.19441292    -0.77130
O933        O  0.32060380  0.19897485  0.27415191    -0.86620
O934        O  0.31896684  0.26486736  0.21765839    -0.86310
O935        O  0.32990777  0.26573967  0.32886795    -0.73070
O936        O  0.32749292  0.32396716  0.27485809    -0.85200
Zr937      Zr  0.21869194  0.27653471  0.28539002     2.26420
Zr938      Zr  0.29023151  0.20793096  0.33183574     2.06270
Zr939      Zr  0.28647872  0.32939118  0.22408220     2.10050
Zr940      Zr  0.28160352  0.20572531  0.22210951     1.78760
O941        O  0.28612726  0.40550052  0.22991894    -0.94010
O942        O  0.27884463  0.12981719  0.23120740    -0.41810
O943        O  0.24839895  0.27000252  0.22682366    -0.78450
O944        O  0.25012333  0.21092474  0.27985174    -0.97130
O945        O  0.25867742  0.27240197  0.33710703    -0.90440
O946        O  0.25693585  0.33566748  0.28197201    -0.93280
C947        C  0.36929020  0.18434704  0.19924772     1.00470
C948        C  0.37630335  0.34268038  0.21462023     1.13400
C949        C  0.37943096  0.19057917  0.34236985     1.04180
O950        O  0.28497819  0.13176038  0.33288647    -0.95430
O951        O  0.23536593  0.18902731  0.36040488    -0.91180
O952        O  0.19211877  0.22808993  0.33183130    -0.84320
C953        C  0.20309768  0.19993126  0.35571956     1.10820
O954        O  0.35376620  0.36112232  0.35179691    -0.97410
Zr955      Zr  0.29790844  0.33014669  0.33281214     1.88940
O956        O  0.19834062  0.32567887  0.33107632    -0.74060
O957        O  0.29573397  0.21290323  0.39948178    -0.53320
O958        O  0.30650232  0.31455609  0.39918903    -0.98000
O959        O  0.29918802  0.40667007  0.32748931    -0.55220
O960        O  0.24514601  0.35457824  0.36120188    -0.74570
C961        C  0.21226701  0.34927445  0.35560689     0.97770
O962        O  0.16118581  0.24992607  0.26607422    -0.63390
O963        O  0.28840217  0.33102821  0.15614210    -0.58200
O964        O  0.18738133  0.32308665  0.23871902    -0.94880
O965        O  0.22863713  0.35444497  0.20180041    -0.93310
O966        O  0.27513917  0.21968557  0.15535670    -0.93660
O967        O  0.22717012  0.17622551  0.19802956    -0.92450
C968        C  0.19639174  0.34767728  0.21113159     1.16610
H969        H  0.33164035  0.26515918  0.19434366     0.32560
H970        H  0.23376922  0.18783600  0.28171582     0.43410
H971        H  0.24364530  0.36167436  0.28240957     0.36930
H972        H  0.34667153  0.26481029  0.34923339     0.33410
H973        H  0.28296227  0.11832059  0.20609599     0.25200
H974        H  0.29921258  0.18355626  0.40853205     0.31140
H975        H  0.29833701  0.34011787  0.41199808     0.37050
H976        H  0.27813524  0.19190813  0.14376540     0.31510
H977        H  0.28215087  0.36032905  0.14885896     0.30390
H978        H  0.28609165  0.41652198  0.20387531     0.32070
H979        H  0.29435435  0.41659169  0.35300977     0.31030
H980        H  0.20820184  0.19337120  0.20921581     0.35030
H981        H  0.16083771  0.25227938  0.23847312     0.27770
H982        H  0.43396653  0.25771846  0.27938054     0.32000
H983        H  0.34908939  0.37509953  0.37574488     0.34850
H984        H  0.26787486  0.31423804  0.14828460     0.27460
H985        H  0.16220077  0.21920086  0.27088833     0.40330
H986        H  0.30491534  0.12171314  0.31759883     0.30390
H987        H  0.30049304  0.12231528  0.24548670     0.38000
H988        H  0.27781025  0.41472897  0.31299430     0.29850
H989        H  0.31870857  0.22656411  0.40392833     0.29920
H990        H  0.41884629  0.28777387  0.30999934     0.30180
Zr991      Zr  0.76439045  0.73615599  0.65941984     2.17510
O992        O  0.75852342  0.71812541  0.59372531    -0.52170
O993        O  0.80906331  0.78571505  0.63402711    -0.75380
O994        O  0.71468929  0.77126853  0.62836171    -0.82160
O995        O  0.82612622  0.64460880  0.67947139    -0.83910
O996        O  0.69877212  0.81919763  0.67060173    -0.79530
O997        O  0.79569625  0.67729806  0.63246567    -0.91170
O998        O  0.83585449  0.81533659  0.68360840    -0.77130
O999        O  0.75816626  0.79535390  0.69884148    -0.86620
O1000       O  0.81230443  0.73204789  0.70265316    -0.86310
O1001       O  0.70793866  0.72714910  0.69041232    -0.73070
O1002       O  0.75810393  0.67073640  0.69390936    -0.85200
Zr1003     Zr  0.74569664  0.71945519  0.81067200     2.26420
Zr1004     Zr  0.70342045  0.78552603  0.73144985     2.06270
Zr1005     Zr  0.80493945  0.66838766  0.73838683     2.10050
Zr1006     Zr  0.80646823  0.79144174  0.74107623     1.78760
O1007       O  0.79399983  0.59301617  0.73915109    -0.94010
O1008       O  0.79511070  0.86689975  0.73887510    -0.41810
O1009       O  0.80072801  0.72786589  0.77788605    -0.78450
O1010       O  0.75184097  0.78469119  0.77496545    -0.97130
O1011       O  0.69812749  0.72178297  0.76659732    -0.90440
O1012       O  0.75057710  0.66030092  0.77087274    -0.93280
C1013       C  0.83260915  0.80992812  0.64821900     1.00470
C1014       C  0.81795482  0.64987744  0.64504662     1.13400
C1015       C  0.69526134  0.80184194  0.63891655     1.04180
O1016       O  0.68640450  0.85927531  0.73398095    -0.95430
O1017       O  0.67701742  0.80963537  0.78903063    -0.91180
O1018       O  0.70215654  0.77142093  0.83665210    -0.84320
C1019       C  0.68028903  0.79999004  0.82385606     1.10820
O1020       O  0.68852881  0.62887389  0.66821560    -0.97410
Zr1021     Zr  0.70336167  0.66352098  0.72640206     1.88940
O1022       O  0.69890284  0.67076073  0.83153798    -0.74060
O1023       O  0.64178639  0.76657743  0.72206260    -0.53320
O1024       O  0.64123873  0.67509947  0.71099252    -0.98000
O1025       O  0.70988632  0.58726653  0.73186256    -0.55220
O1026       O  0.66992949  0.64505574  0.78109933    -0.74570
C1027       C  0.67367506  0.64988866  0.81624038     0.97770
O1028       O  0.76216354  0.74294523  0.87298435    -0.63390
O1029       O  0.86908011  0.66300531  0.74146325    -0.58200
O1030       O  0.79423047  0.67491130  0.84224057    -0.94880
O1031       O  0.82891920  0.64591960  0.79771728    -0.93310
O1032       O  0.86903327  0.77821524  0.75234289    -0.93660
O1033       O  0.82864758  0.82642710  0.79613281    -0.92450
C1034       C  0.82118055  0.65198623  0.83188791     1.16610
H1035       H  0.83472579  0.73177803  0.68994916     0.32560
H1036       H  0.74975617  0.80828507  0.79140067     0.43410
H1037       H  0.75038423  0.63455875  0.78560087     0.36930
H1038       H  0.68848934  0.72658189  0.67298858     0.33410
H1039       H  0.81814741  0.87958519  0.73251177     0.25200
H1040       H  0.62828312  0.79263351  0.72691491     0.31140
H1041       H  0.62940551  0.64846487  0.71795153     0.37050
H1042       H  0.88106591  0.80348931  0.74227770     0.31510
H1043       H  0.87461449  0.63375989  0.73441720     0.30390
H1044       H  0.79972976  0.58297035  0.76481033     0.32070
H1045       H  0.68543127  0.57653948  0.73243012     0.31030
H1046       H  0.82013055  0.80898468  0.81739872     0.35030
H1047       H  0.78824096  0.74384733  0.87300838     0.27770
H1048       H  0.76063560  0.74495825  0.57948448     0.32000
H1049       H  0.66765461  0.61127235  0.67355051     0.34850
H1050       H  0.87771663  0.68054188  0.72032790     0.27460
H1051       H  0.75539521  0.77298283  0.87407446     0.40330
H1052       H  0.70899139  0.87433942  0.73683430     0.30390
H1053       H  0.78039845  0.87182973  0.71627763     0.38000
H1054       H  0.71889405  0.58146842  0.75742861     0.29850
H1055       H  0.63886233  0.76208199  0.69499559     0.29920
H1056       H  0.73378033  0.70918898  0.59016710     0.30180
C1057       C  0.91943547  0.10454543  0.11699181    -0.06970
C1058       C  0.91135938  0.08559512  0.15160784    -0.18090
C1059       C  0.89011441  0.10597479  0.17778389     0.10230
C1060       C  0.87738013  0.14702016  0.16978428    -0.06890
C1061       C  0.88621014  0.16644497  0.13555405    -0.18130
C1062       C  0.90696503  0.14570055  0.10913702     0.10260
S1063       S  0.87929380  0.07719780  0.22010470    -0.33090
S1064       S  0.91730837  0.17378012  0.06637203    -0.33100
H1065       H  0.92063613  0.13839472  0.04378911     0.28270
H1066       H  0.87168111  0.11200124  0.24219219     0.28270
H1067       H  0.92211576  0.05486680  0.15857290     0.18860
H1068       H  0.87614726  0.19770184  0.12897977     0.18870
C1069       C  0.14319969  0.90063552  0.10330059    -0.06970
C1070       C  0.16373640  0.86954033  0.08645581    -0.18090
C1071       C  0.18220881  0.83948435  0.10822541     0.10230
C1072       C  0.17999389  0.84042659  0.14764240    -0.06890
C1073       C  0.15982576  0.87175847  0.16434780    -0.18130
C1074       C  0.14204257  0.90219379  0.14271740     0.10260
S1075       S  0.20733441  0.80003769  0.08420332    -0.33090
S1076       S  0.11930622  0.94324741  0.16711951    -0.33100
H1077       H  0.12337260  0.97412306  0.13886898     0.28270
H1078       H  0.20520229  0.76906890  0.11261242     0.28270
H1079       H  0.16416989  0.86755123  0.05628345     0.18860
H1080       H  0.15932429  0.87377124  0.19452948     0.18870
C1081       C  0.14338073  0.11251953  0.92969322    -0.06970
C1082       C  0.17127477  0.09452975  0.90967434    -0.18090
C1083       C  0.19261545  0.11913439  0.88595218     0.10230
C1084       C  0.18619762  0.16287932  0.88195085    -0.06890
C1085       C  0.15981551  0.18125419  0.90365653    -0.18130
C1086       C  0.13857651  0.15678291  0.92746225     0.10260
S1087       S  0.22702129  0.09273691  0.86059768    -0.33090
S1088       S  0.10539532  0.18407431  0.95380454    -0.33100
H1089       H  0.10638701  0.15616496  0.98475520     0.28270
H1090       H  0.24939270  0.12765938  0.85727398     0.28270
H1091       H  0.17547699  0.06082326  0.91115298     0.18860
H1092       H  0.15468699  0.21472186  0.90087143     0.18870
C1093       C  0.14183414  0.90415976  0.91653319    -0.06970
C1094       C  0.17326361  0.88691123  0.93172104    -0.18090
C1095       C  0.19772815  0.86516039  0.90938342     0.10230
C1096       C  0.19029651  0.85919451  0.87093614    -0.06890
C1097       C  0.15887578  0.87724558  0.85626636    -0.18130
C1098       C  0.13552616  0.90017310  0.87796514     0.10260
S1099       S  0.23787247  0.84691467  0.93157552    -0.33090
S1100       S  0.09913157  0.92562080  0.85376082    -0.33100
H1101       H  0.10056252  0.96272821  0.87439779     0.28270
H1102       H  0.25975894  0.86459177  0.90386674     0.28270
H1103       H  0.17885031  0.89045686  0.96118648     0.18860
H1104       H  0.15223923  0.87439488  0.82698905     0.18870
C1105       C  0.91393929  0.10837123  0.91875740    -0.06970
C1106       C  0.92757491  0.14325265  0.89833741    -0.18090
C1107       C  0.90708677  0.16758672  0.87281055     0.10230
C1108       C  0.87137220  0.15725375  0.86598422    -0.06890
C1109       C  0.85761692  0.12269093  0.88683103    -0.18130
C1110       C  0.87810784  0.09850159  0.91246517     0.10260
S1111       S  0.92827435  0.21199759  0.85086911    -0.33090
S1112       S  0.85721812  0.05408972  0.93452942    -0.33100
H1113       H  0.88387022  0.02618739  0.92322878     0.28270
H1114       H  0.90152422  0.24047737  0.86095560     0.28270
H1115       H  0.95476627  0.15236382  0.90255419     0.18860
H1116       H  0.83044014  0.11347501  0.88275880     0.18870
C1117       C  0.87714699  0.84903151  0.15947450    -0.06970
C1118       C  0.87362845  0.89309660  0.16028534    -0.18090
C1119       C  0.89320324  0.91976454  0.13643704     0.10230
C1120       C  0.91660698  0.90253491  0.11008246    -0.06890
C1121       C  0.91975433  0.85841181  0.10896353    -0.18130
C1122       C  0.89997883  0.83171379  0.13255239     0.10260
S1123       S  0.88850125  0.97543247  0.14254075    -0.33090
S1124       S  0.90374762  0.77605595  0.12509823    -0.33100
H1125       H  0.86923244  0.76583731  0.13601378     0.28270
H1126       H  0.92428686  0.98446381  0.13640450     0.28270
H1127       H  0.85593263  0.90700236  0.18035679     0.18860
H1128       H  0.93762268  0.84449141  0.08906582     0.18870
C1129       C  0.60213446  0.10411895  0.12635795    -0.06970
C1130       C  0.62189959  0.13698652  0.11008745    -0.18090
C1131       C  0.64286213  0.16290786  0.13156014     0.10230
C1132       C  0.64449103  0.15632144  0.17040955    -0.06890
C1133       C  0.62332058  0.12568666  0.18739577    -0.18130
C1134       C  0.60238393  0.09925527  0.16587319     0.10260
S1135       S  0.66756017  0.20346524  0.10770536    -0.33090
S1136       S  0.57933085  0.05819124  0.19054190    -0.33100
H1137       H  0.59805989  0.02667987  0.17191606     0.28270
H1138       H  0.66617543  0.23217558  0.13701693     0.28270
H1139       H  0.62147807  0.14255658  0.08014752     0.18860
H1140       H  0.62480624  0.12060452  0.21738487     0.18870
C1141       C  0.43601103  0.10809321  0.12721578    -0.06970
C1142       C  0.40879841  0.13406283  0.11242484    -0.18090
C1143       C  0.38798955  0.16006330  0.13484047     0.10230
C1144       C  0.39361168  0.16086140  0.17392989    -0.06890
C1145       C  0.42146127  0.13632899  0.18898665    -0.18130
C1146       C  0.44222853  0.10981554  0.16648870     0.10260
S1147       S  0.35501066  0.19200238  0.11103937    -0.33090
S1148       S  0.47586122  0.07903056  0.19010414    -0.33100
H1149       H  0.46054468  0.04062363  0.18025155     0.28270
H1150       H  0.35363908  0.22414578  0.13716288     0.28270
H1151       H  0.40330206  0.13427135  0.08272011     0.18860
H1152       H  0.42622912  0.13650573  0.21884484     0.19190
C1153       C  0.45122821  0.89351574  0.13836991    -0.06970
C1154       C  0.43069883  0.91265325  0.16572642    -0.18090
C1155       C  0.40936376  0.88846593  0.18908505     0.10230
C1156       C  0.40818477  0.84466755  0.18449402    -0.06890
C1157       C  0.43144137  0.82519379  0.15996187    -0.18130
C1158       C  0.45337598  0.84923200  0.13708863     0.10260
S1159       S  0.38361937  0.91479395  0.22373127    -0.33090
S1160       S  0.48269042  0.82174109  0.10623849    -0.33100
H1161       H  0.50858181  0.85318923  0.10495996     0.28270
H1162       H  0.38574076  0.88073306  0.24920808     0.28270
H1163       H  0.42978235  0.94659995  0.16756183     0.18860
H1164       H  0.43115796  0.79134092  0.15718753     0.18870
C1165       C  0.61634636  0.88063835  0.89595114    -0.06970
C1166       C  0.60057036  0.85791266  0.86705566    -0.18090
C1167       C  0.62031638  0.83018038  0.84460825     0.10230
C1168       C  0.65729679  0.82457015  0.85034044    -0.06890
C1169       C  0.67303785  0.84736848  0.87912268    -0.18130
C1170       C  0.65339601  0.87546568  0.90122086     0.10260
S1171       S  0.59626890  0.80156657  0.80990578    -0.33090
S1172       S  0.67786687  0.90606511  0.93411141    -0.33100
H1173       H  0.65661150  0.94232605  0.93008855     0.28270
H1174       H  0.61853712  0.76606545  0.81083234     0.28270
H1175       H  0.57233933  0.86073823  0.86260459     0.18860
H1176       H  0.70131124  0.84479971  0.88335692     0.18870
C1177       C  0.60431358  0.09161783  0.88522186    -0.06970
C1178       C  0.63435046  0.11045791  0.90053143    -0.18090
C1179       C  0.65246014  0.14175805  0.88180970     0.10230
C1180       C  0.64407911  0.15164651  0.84423525    -0.06890
C1181       C  0.61409768  0.13327002  0.82815602    -0.18130
C1182       C  0.59369403  0.10395322  0.84858679     0.10260
S1183       S  0.68443675  0.16968590  0.90907056    -0.33090
S1184       S  0.55418461  0.08485456  0.82715440    -0.33100
H1185       H  0.56596113  0.04286445  0.82911140     0.28270
H1186       H  0.67934780  0.20841852  0.89009459     0.28270
H1187       H  0.64313878  0.10244843  0.92864769     0.18860
H1188       H  0.60698159  0.14103465  0.79949731     0.18870
C1189       C  0.37587521  0.85961461  0.85422477    -0.06970
C1190       C  0.40662887  0.83791913  0.86539818    -0.18090
C1191       C  0.43331928  0.85799921  0.88524694     0.10230
C1192       C  0.42944313  0.90086571  0.89370917    -0.06890
C1193       C  0.39900080  0.92279818  0.88193940    -0.18130
C1194       C  0.37215647  0.90259360  0.86234834     0.10260
S1195       S  0.47123387  0.82709058  0.89988281    -0.33090
S1196       S  0.33380411  0.93314579  0.84852794    -0.33100
H1197       H  0.30972809  0.89975867  0.84953566     0.28270
H1198       H  0.49544347  0.86033000  0.89966074     0.28270
H1199       H  0.41021948  0.80534543  0.85798125     0.18860
H1200       H  0.39562100  0.95549681  0.88912870     0.18870
C1201       C  0.18059053  0.14693491  0.63601641    -0.06970
C1202       C  0.16660921  0.16622065  0.60340658    -0.18090
C1203       C  0.14292273  0.14491816  0.58016369     0.10230
C1204       C  0.13233193  0.10370109  0.59008215    -0.06890
C1205       C  0.14721859  0.08397955  0.62176551    -0.18130
C1206       C  0.17142352  0.10476864  0.64440701     0.10260
S1207       S  0.12670886  0.17227970  0.53881051    -0.33090
S1208       S  0.19045328  0.07515990  0.68301279    -0.33100
H1209       H  0.22335192  0.09533462  0.68196490     0.28270
H1210       H  0.11935174  0.13663272  0.51771045     0.28270
H1211       H  0.17348691  0.19841078  0.59646894     0.18860
H1212       H  0.14010219  0.05186190  0.62879664     0.18870
C1213       C  0.13299949  0.11520628  0.41288638    -0.06970
C1214       C  0.16085890  0.13344254  0.43260815    -0.18090
C1215       C  0.18284203  0.16338876  0.41558915     0.10230
C1216       C  0.17699670  0.17571241  0.37774928    -0.06890
C1217       C  0.14875641  0.15818100  0.35836917    -0.18130
C1218       C  0.12749306  0.12746164  0.37497909     0.10260
S1219       S  0.21746343  0.18485493  0.44405483    -0.33090
S1220       S  0.09614601  0.10246034  0.34485891    -0.33100
H1221       H  0.10211987  0.06192166  0.36011638     0.28270
H1222       H  0.21998203  0.22328742  0.42439274     0.28270
H1223       H  0.16524254  0.12482139  0.46169608     0.18860
H1224       H  0.14481219  0.16614913  0.32906655     0.18870
C1225       C  0.85926391  0.83206073  0.62322728    -0.06970
C1226       C  0.89417200  0.83512091  0.63642062    -0.18090
C1227       C  0.92098290  0.85545348  0.61592051     0.10230
C1228       C  0.91348632  0.87572159  0.58091057    -0.06890
C1229       C  0.87849739  0.87188757  0.56720887    -0.18130
C1230       C  0.85175271  0.85037768  0.58752791     0.10260
S1231       S  0.96417441  0.85412315  0.63696439    -0.33090
S1232       S  0.80834042  0.84899660  0.56683497    -0.33100
H1233       H  0.79016432  0.85484748  0.60050665     0.28270
H1234       H  0.97874335  0.83142940  0.60736173     0.28270
H1235       H  0.90100495  0.82071561  0.66318904     0.18860
H1236       H  0.87158989  0.88628437  0.54048322     0.18870
C1237       C  0.90811225  0.06939734  0.39704983    -0.06970
C1238       C  0.88431864  0.09510847  0.41584777    -0.18090
C1239       C  0.86473785  0.12561549  0.39645750     0.10230
C1240       C  0.86806412  0.12927424  0.35728471    -0.06890
C1241       C  0.89107942  0.10270427  0.33833046    -0.18130
C1242       C  0.91106918  0.07258527  0.35779889     0.10260
S1243       S  0.83793322  0.16075479  0.42352513    -0.33090
S1244       S  0.93987782  0.03939794  0.33102460    -0.33100
H1245       H  0.94304641  0.00672679  0.35782764     0.28270
H1246       H  0.84132176  0.19574570  0.39921539     0.28270
H1247       H  0.88303694  0.09366537  0.44609114     0.18860
H1248       H  0.89291186  0.10481349  0.30817494     0.18870
C1249       C  0.19297013  0.85908809  0.62698927    -0.06970
C1250       C  0.18128805  0.84007327  0.59418664    -0.18090
C1251       C  0.15982202  0.86211992  0.56891537     0.10230
C1252       C  0.15005603  0.90362401  0.57691759    -0.06890
C1253       C  0.16409380  0.92384453  0.60769229    -0.18130
C1254       C  0.18559161  0.90204422  0.63302421     0.10260
S1255       S  0.14473282  0.83551732  0.52784954    -0.33090
S1256       S  0.20301083  0.92965386  0.67263206    -0.33100
H1257       H  0.18554115  0.96823078  0.66586056     0.28270
H1258       H  0.13883797  0.87198656  0.50581744     0.28270
H1259       H  0.18746354  0.80738367  0.58908457     0.18860
H1260       H  0.15656715  0.95612826  0.61282556     0.18870
C1261       C  0.93121122  0.88808220  0.38947522    -0.06970
C1262       C  0.94692170  0.85370857  0.37179278    -0.18090
C1263       C  0.92656238  0.82512156  0.35264616     0.10230
C1264       C  0.88986133  0.83144560  0.35055965    -0.06890
C1265       C  0.87429648  0.86640076  0.36725836    -0.18130
C1266       C  0.89456757  0.89512991  0.38621152     0.10260
S1267       S  0.94833669  0.77943905  0.33484911    -0.33090
S1268       S  0.87218134  0.94064362  0.40403952    -0.33100
H1269       H  0.89980913  0.96827550  0.39541308     0.28270
H1270       H  0.92590564  0.75209705  0.35470833     0.28270
H1271       H  0.97501489  0.84770564  0.37456517     0.18860
H1272       H  0.84610986  0.87199799  0.36468458     0.18870
C1273       C  0.17186869  0.64615258  0.15436439    -0.06970
C1274       C  0.13987886  0.63536522  0.17162006    -0.18090
C1275       C  0.11311163  0.61586827  0.15175729     0.10230
C1276       C  0.11900130  0.60555037  0.11417586    -0.06890
C1277       C  0.15106646  0.61618212  0.09712273    -0.18130
C1278       C  0.17713397  0.63713699  0.11639568     0.10260
S1279       S  0.07185853  0.60692818  0.17541933    -0.33090
S1280       S  0.21535870  0.65318149  0.09007264    -0.33100
H1281       H  0.21767465  0.69285483  0.10643451     0.28270
H1282       H  0.05062898  0.61736880  0.14420443     0.28270
H1283       H  0.13550300  0.64265009  0.20068134     0.18860
H1284       H  0.15583256  0.60851365  0.06821640     0.18870
C1285       C  0.12054502  0.40880514  0.13375133    -0.06970
C1286       C  0.13651486  0.43160482  0.16271372    -0.18090
C1287       C  0.15995209  0.41240767  0.18910296     0.10230
C1288       C  0.16811934  0.36890180  0.18731559    -0.06890
C1289       C  0.15160539  0.34594251  0.15907893    -0.18130
C1290       C  0.12803472  0.36496957  0.13290610     0.10260
S1291       S  0.17910725  0.44543699  0.22405595    -0.33090
S1292       S  0.10760591  0.33093484  0.09972322    -0.33100
H1293       H  0.07438380  0.35088603  0.10103130     0.28270
H1294       H  0.18478737  0.41352817  0.25116343     0.28270
H1295       H  0.13125921  0.46501249  0.16444803     0.18860
H1296       H  0.15744605  0.31268650  0.15706553     0.18870
C1297       C  0.15720848  0.37271892  0.84799555    -0.06970
C1298       C  0.12205987  0.37576000  0.83480385    -0.18090
C1299       C  0.09563169  0.39592793  0.85523137     0.10230
C1300       C  0.10444376  0.41438996  0.88936024    -0.06890
C1301       C  0.14005533  0.41335783  0.90125208    -0.18130
C1302       C  0.16631336  0.39296419  0.88116872     0.10260
S1303       S  0.05126047  0.39473766  0.83734144    -0.33090
S1304       S  0.21086513  0.39489620  0.89901785    -0.33100
H1305       H  0.22676476  0.39965952  0.86377024     0.28270
H1306       H  0.03553054  0.38644992  0.87218284     0.28270
H1307       H  0.11472054  0.36071391  0.80905080     0.18860
H1308       H  0.14761211  0.42839226  0.92690636     0.18870
C1309       C  0.89467613  0.63937012  0.17970318    -0.06970
C1310       C  0.88370027  0.60115177  0.16454091    -0.18090
C1311       C  0.90712933  0.57524265  0.14613439     0.10230
C1312       C  0.94230681  0.58785695  0.14191193    -0.06890
C1313       C  0.95459626  0.62338405  0.15987066    -0.18130
C1314       C  0.93130380  0.64934548  0.17899424     0.10260
S1315       S  0.89025297  0.52731295  0.12692482    -0.33090
S1316       S  0.95067480  0.69446853  0.20050615    -0.33100
H1317       H  0.92792303  0.72334977  0.18261502     0.28270
H1318       H  0.92272464  0.50563523  0.12678988     0.28270
H1319       H  0.85644973  0.59131088  0.16639284     0.18860
H1320       H  0.98194382  0.63254391  0.15674944     0.18870
C1321       C  0.84650046  0.63036809  0.85946348    -0.06970
C1322       C  0.85651902  0.58814054  0.85315714    -0.18090
C1323       C  0.88375634  0.56720984  0.87373097     0.10230
C1324       C  0.90334617  0.58869156  0.90120215    -0.06890
C1325       C  0.89290506  0.63075452  0.90792030    -0.18130
C1326       C  0.86560387  0.65165728  0.88733825     0.10260
S1327       S  0.89084142  0.51238493  0.86465056    -0.33090
S1328       S  0.85806513  0.70638793  0.89647774    -0.33100
H1329       H  0.85289477  0.71862004  0.85889246     0.28270
H1330       H  0.89627755  0.50046562  0.90227803     0.28270
H1331       H  0.84278965  0.57098042  0.83174234     0.18860
H1332       H  0.90689955  0.64818438  0.92895057     0.18870
C1333       C  0.86682581  0.35719667  0.86028928    -0.06970
C1334       C  0.89724451  0.37384471  0.84383788    -0.18090
C1335       C  0.92231464  0.39497108  0.86492949     0.10230
C1336       C  0.91749504  0.39885472  0.90402757    -0.06890
C1337       C  0.88670017  0.38226568  0.92021041    -0.18130
C1338       C  0.86168529  0.36130112  0.89905213     0.10260
S1339       S  0.95983382  0.41491783  0.83980366    -0.33090
S1340       S  0.82491526  0.33863677  0.92383137    -0.33100
H1341       H  0.82502658  0.30101915  0.90385086     0.28270
H1342       H  0.95125705  0.45715563  0.84637700     0.28270
H1343       H  0.90131871  0.37084797  0.81406323     0.18860
H1344       H  0.88202992  0.38510776  0.94987911     0.18870
C1345       C  0.40599316  0.16998201  0.36565226    -0.06970
C1346       C  0.42202542  0.19316699  0.39390820    -0.18090
C1347       C  0.43815133  0.17274083  0.42452683     0.10230
C1348       C  0.43840079  0.12840875  0.42636946    -0.06890
C1349       C  0.42369073  0.10578966  0.39684750    -0.18130
C1350       C  0.40822007  0.12605579  0.36630476     0.10260
S1351       S  0.45448903  0.20468610  0.46171800    -0.33090
S1352       S  0.39018069  0.09430135  0.32969655    -0.33100
H1353       H  0.39283736  0.12511905  0.30114865     0.28270
H1354       H  0.44178174  0.17838104  0.49062501     0.28270
H1355       H  0.41941861  0.22711208  0.39364422     0.18860
H1356       H  0.42393471  0.07184865  0.39748998     0.18870
C1357       C  0.66214420  0.82323444  0.36470247    -0.06970
C1358       C  0.63858495  0.85070965  0.34592994    -0.18090
C1359       C  0.61479646  0.87605422  0.36552535     0.10230
C1360       C  0.61398364  0.87372530  0.40495216    -0.06890
C1361       C  0.63662168  0.84519964  0.42369490    -0.18130
C1362       C  0.66089382  0.82035272  0.40424559     0.10260
S1363       S  0.58643773  0.91101507  0.33863357    -0.33090
S1364       S  0.68951296  0.78649685  0.43217617    -0.33100
H1365       H  0.70301359  0.76171848  0.40365802     0.28270
H1366       H  0.55818664  0.91060056  0.36396106     0.28270
H1367       H  0.63941200  0.85334580  0.31572633     0.18860
H1368       H  0.63620326  0.84327282  0.45394054     0.18870
C1369       C  0.60322080  0.11112534  0.61381562    -0.06970
C1370       C  0.63711367  0.09450609  0.62085344    -0.18090
C1371       C  0.66075678  0.11377842  0.64461549     0.10230
C1372       C  0.65177421  0.15267551  0.66049092    -0.06890
C1373       C  0.61806147  0.17009201  0.65291177    -0.18130
C1374       C  0.59349198  0.14937623  0.63041041     0.10260
S1375       S  0.70071588  0.08490612  0.65532255    -0.33090
S1376       S  0.55004203  0.17229916  0.62548450    -0.33100
H1377       H  0.53217481  0.13384874  0.62913355     0.28270
H1378       H  0.69791319  0.09115152  0.69398537     0.28270
H1379       H  0.64516922  0.06514432  0.60851508     0.18860
H1380       H  0.61055849  0.19978805  0.66497171     0.18870
C1381       C  0.60449250  0.84476129  0.57742488    -0.06970
C1382       C  0.63360321  0.82977375  0.55747671    -0.18090
C1383       C  0.66400663  0.81532169  0.57628990     0.10230
C1384       C  0.66491113  0.81571784  0.61580225    -0.06890
C1385       C  0.63446201  0.82778835  0.63520073    -0.18130
C1386       C  0.60419185  0.84112242  0.61655890     0.10260
S1387       S  0.70154203  0.80153341  0.54828352    -0.33090
S1388       S  0.56687542  0.85690195  0.64432712    -0.33100
H1389       H  0.54158397  0.85281082  0.61576537     0.28270
H1390       H  0.72642205  0.82038314  0.57177368     0.28270
H1391       H  0.63410712  0.83347670  0.52733148     0.18860
H1392       H  0.63422452  0.82768143  0.66538863     0.18870
C1393       C  0.41556009  0.11425177  0.59882591    -0.06970
C1394       C  0.42743456  0.13527526  0.63048277    -0.18090
C1395       C  0.40416448  0.15834793  0.65288530     0.10230
C1396       C  0.36751002  0.16002478  0.64438600    -0.06890
C1397       C  0.35597822  0.14052102  0.61156745    -0.18130
C1398       C  0.37947272  0.11807790  0.58876030     0.10260
S1399       S  0.42341280  0.18606474  0.69120234    -0.33090
S1400       S  0.36187004  0.09525593  0.54696257    -0.33100
H1401       H  0.39325419  0.09756134  0.52623534     0.28270
H1402       H  0.40104063  0.22140178  0.68744730     0.28270
H1403       H  0.45511063  0.13326750  0.63815659     0.18860
H1404       H  0.32829774  0.14210125  0.60390606     0.18870
C1405       C  0.44577558  0.88037851  0.39128879    -0.06970
C1406       C  0.41670985  0.90157567  0.37488224    -0.18090
C1407       C  0.39260936  0.88143457  0.35254182     0.10230
C1408       C  0.39689662  0.83820577  0.34625973    -0.06890
C1409       C  0.42667020  0.81686399  0.36102066    -0.18130
C1410       C  0.45137088  0.83757766  0.38320350     0.10260
S1411       S  0.35724010  0.91363188  0.33333431    -0.33090
S1412       S  0.48939597  0.80802805  0.39937823    -0.33100
H1413       H  0.51320355  0.84123027  0.39354710     0.28270
H1414       H  0.35296678  0.89123965  0.30043969     0.28270
H1415       H  0.41192090  0.93448293  0.37985283     0.18860
H1416       H  0.43046190  0.78374248  0.35565641     0.18870
C1417       C  0.41688554  0.62258442  0.90633132    -0.06970
C1418       C  0.40424805  0.66087638  0.92030813    -0.18090
C1419       C  0.38375294  0.68820325  0.89843553     0.10230
C1420       C  0.37595302  0.67735140  0.86144062    -0.06890
C1421       C  0.38901069  0.63957025  0.84715522    -0.18130
C1422       C  0.40864861  0.61164994  0.86933259     0.10260
S1423       S  0.36917968  0.73635605  0.91938110    -0.33090
S1424       S  0.41969043  0.56164577  0.84949373    -0.33100
H1425       H  0.41106412  0.53853868  0.88198897     0.28270
H1426       H  0.36878627  0.76030473  0.88615696     0.28270
H1427       H  0.41058677  0.66996108  0.94854264     0.18860
H1428       H  0.38224078  0.63061482  0.81897686     0.18870
C1429       C  0.44866018  0.40790728  0.14817830    -0.06970
C1430       C  0.43249545  0.37154537  0.13507331    -0.18090
C1431       C  0.40955244  0.34928305  0.15720888     0.10230
C1432       C  0.40331270  0.36282219  0.19347795    -0.06890
C1433       C  0.42250713  0.39563306  0.20871269    -0.18130
C1434       C  0.44589372  0.41824990  0.18634549     0.10260
S1435       S  0.38688011  0.30577173  0.13677544    -0.33090
S1436       S  0.46958624  0.46037016  0.20767316    -0.33100
H1437       H  0.50261540  0.44622530  0.19492851     0.28270
H1438       H  0.39069317  0.27941492  0.16852421     0.28270
H1439       H  0.43602014  0.36163045  0.10653454     0.18860
H1440       H  0.41840508  0.40436406  0.23748248     0.18870
C1441       C  0.61208412  0.59901734  0.13153866    -0.06970
C1442       C  0.62279221  0.64037079  0.12342200    -0.18090
C1443       C  0.64584314  0.66157594  0.14703555     0.10230
C1444       C  0.65900804  0.64122563  0.17959967    -0.06890
C1445       C  0.64833175  0.60016153  0.18814292    -0.18130
C1446       C  0.62537944  0.57870922  0.16444956     0.10260
S1447       S  0.65855015  0.71410880  0.13341641    -0.33090
S1448       S  0.61660620  0.52457572  0.17648499    -0.33100
H1449       H  0.61934725  0.51099521  0.13954062     0.28270
H1450       H  0.65987234  0.72946852  0.16985832     0.28270
H1451       H  0.61300678  0.65650791  0.09849066     0.18860
H1452       H  0.65911059  0.58407939  0.21265509     0.18870
C1453       C  0.60114705  0.40409876  0.13182122    -0.06970
C1454       C  0.63565937  0.41855473  0.13497969    -0.18090
C1455       C  0.66064505  0.39678775  0.15649730     0.10230
C1456       C  0.65143454  0.35836523  0.17445263    -0.06890
C1457       C  0.61613127  0.34472852  0.17213986    -0.18130
C1458       C  0.59081133  0.36749839  0.15139478     0.10260
S1459       S  0.70329360  0.42075360  0.16039737    -0.33090
S1460       S  0.54635525  0.34756625  0.14992896    -0.33100
H1461       H  0.52951481  0.38630117  0.14253447     0.28270
H1462       H  0.71763072  0.39539836  0.13242533     0.28270
H1463       H  0.64347557  0.44678290  0.11986176     0.18860
H1464       H  0.60819620  0.31577855  0.18600712     0.18870
C1465       C  0.59992506  0.58344279  0.88694129    -0.06970
C1466       C  0.58736430  0.60621375  0.85570230    -0.18090
C1467       C  0.61057549  0.62873176  0.83240926     0.10230
C1468       C  0.64736963  0.62868290  0.84051236    -0.06890
C1469       C  0.65986033  0.60461748  0.87088965    -0.18130
C1470       C  0.63690668  0.58124103  0.89334694     0.10260
S1471       S  0.59106300  0.65864260  0.79422341    -0.33090
S1472       S  0.65692845  0.54797376  0.92898946    -0.33100
H1473       H  0.62998843  0.51779489  0.92948741     0.28270
H1474       H  0.61546720  0.69161633  0.79504827     0.28270
H1475       H  0.55919415  0.60842047  0.85057772     0.18860
H1476       H  0.68798712  0.60281540  0.87644750     0.18870
C1477       C  0.40114818  0.41756145  0.90770813    -0.06970
C1478       C  0.37962191  0.43897878  0.88125906    -0.18090
C1479       C  0.35289972  0.41825977  0.86082714     0.10230
C1480       C  0.34693996  0.37441759  0.86601032    -0.06890
C1481       C  0.36822356  0.35306862  0.89260123    -0.18130
C1482       C  0.39510167  0.37364521  0.91279307     0.10260
S1483       S  0.32626477  0.45006242  0.82926518    -0.33090
S1484       S  0.42239676  0.34106302  0.94305354    -0.33100
H1485       H  0.45355909  0.36392010  0.93703780     0.28270
H1486       H  0.29564174  0.42559060  0.83266020     0.28270
H1487       H  0.38280321  0.47248271  0.87719641     0.18860
H1488       H  0.36515084  0.31943680  0.89637444     0.18870
C1489       C  0.13927069  0.42101957  0.41580987    -0.06970
C1490       C  0.13806298  0.37705045  0.41839419    -0.18090
C1491       C  0.16257732  0.35263579  0.40012039     0.10230
C1492       C  0.18872763  0.37279103  0.37885370    -0.06890
C1493       C  0.19121086  0.41667182  0.37772080    -0.18130
C1494       C  0.16616230  0.44122855  0.39548123     0.10260
S1495       S  0.15912611  0.29627369  0.40513108    -0.33090
S1496       S  0.16831227  0.49738453  0.38845434    -0.33100
H1497       H  0.13161282  0.50423397  0.38737203     0.28270
H1498       H  0.19530923  0.28791952  0.40079824     0.28270
H1499       H  0.11765519  0.36159561  0.43463383     0.18860
H1500       H  0.21148923  0.43180617  0.36107698     0.18870
C1501       C  0.88807817  0.58537143  0.57415370    -0.06970
C1502       C  0.87702253  0.56572851  0.60714670    -0.18090
C1503       C  0.85136645  0.58412545  0.62926090     0.10230
C1504       C  0.83723957  0.62384831  0.61837633    -0.06890
C1505       C  0.84597920  0.64140871  0.58330870    -0.18130
C1506       C  0.87117098  0.62222682  0.56079509     0.10260
S1507       S  0.83727816  0.55628660  0.67107655    -0.33090
S1508       S  0.88148228  0.64707111  0.51647509    -0.33100
H1509       H  0.89729171  0.61203140  0.49993185     0.28270
H1510       H  0.86015068  0.52146964  0.66842085     0.28270
H1511       H  0.88942889  0.53640024  0.61606802     0.18860
H1512       H  0.83467770  0.67132047  0.57429802     0.18870
C1513       C  0.12498510  0.60717508  0.59370088    -0.06970
C1514       C  0.15621588  0.62378942  0.57834896    -0.18090
C1515       C  0.18159918  0.64388844  0.60055892     0.10230
C1516       C  0.17546374  0.64930699  0.63930443    -0.06890
C1517       C  0.14457472  0.63183652  0.65457420    -0.18130
C1518       C  0.12009015  0.61024516  0.63277061     0.10260
S1519       S  0.22180186  0.65988997  0.57781609    -0.33090
S1520       S  0.08437018  0.58515582  0.65739440    -0.33100
H1521       H  0.08616755  0.54787702  0.63697351     0.28270
H1522       H  0.24390002  0.64550337  0.60714191     0.28270
H1523       H  0.16115210  0.62074845  0.54874212     0.18860
H1524       H  0.13939829  0.63454848  0.68415803     0.18870
C1525       C  0.87511802  0.35061986  0.66589944    -0.06970
C1526       C  0.86225667  0.35978568  0.62952608    -0.18090
C1527       C  0.88295506  0.37914091  0.60196879     0.10230
C1528       C  0.91803711  0.39065970  0.61030613    -0.06890
C1529       C  0.93122319  0.38096315  0.64654102    -0.18130
C1530       C  0.91024384  0.36167284  0.67428287     0.10260
S1531       S  0.86295148  0.38658136  0.55649713    -0.33090
S1532       S  0.92925781  0.35433454  0.72015220    -0.33100
H1533       H  0.89863171  0.36668087  0.73923619     0.28270
H1534       H  0.89270599  0.37212272  0.53707545     0.28270
H1535       H  0.83562930  0.35108808  0.62197221     0.18860
H1536       H  0.95788480  0.38976955  0.65390353     0.18870
C1537       C  0.16322374  0.65182581  0.34242666    -0.06970
C1538       C  0.17521623  0.63909287  0.37824491    -0.18090
C1539       C  0.15331966  0.61916567  0.40429516     0.10230
C1540       C  0.11761356  0.61107351  0.39504336    -0.06890
C1541       C  0.10526830  0.62468836  0.35946100    -0.18130
C1542       C  0.12737985  0.64515226  0.33345537     0.10260
S1543       S  0.17277024  0.60708482  0.44934320    -0.33090
S1544       S  0.10873705  0.66008019  0.28883998    -0.33100
H1545       H  0.11461300  0.70313750  0.29419592     0.28270
H1546       H  0.17298111  0.56352856  0.44368335     0.28270
H1547       H  0.20231632  0.64481426  0.38638860     0.18860
H1548       H  0.07813543  0.61902873  0.35148444     0.18870
C1549       C  0.87780283  0.33377871  0.35852339    -0.06970
C1550       C  0.89271896  0.31480194  0.39067450    -0.18090
C1551       C  0.91057448  0.33876534  0.41732495     0.10230
C1552       C  0.91368441  0.38271669  0.41187096    -0.06890
C1553       C  0.89903179  0.40154668  0.37960090    -0.18130
C1554       C  0.88135990  0.37767675  0.35297893     0.10260
S1555       S  0.92831744  0.31159435  0.45799220    -0.33090
S1556       S  0.86384999  0.40497883  0.31224040    -0.33100
H1557       H  0.86729042  0.37089751  0.28809615     0.28270
H1558       H  0.92835396  0.34625840  0.48167290     0.28270
H1559       H  0.88916414  0.28144105  0.39584092     0.18860
H1560       H  0.90224903  0.43499210  0.37457029     0.18870
C1561       C  0.40117345  0.59184365  0.41109624    -0.06970
C1562       C  0.42537285  0.61519054  0.38964909    -0.18090
C1563       C  0.41493519  0.63620735  0.35711377     0.10230
C1564       C  0.37925654  0.63466056  0.34627152    -0.06890
C1565       C  0.35500248  0.61245705  0.36835350    -0.18130
C1566       C  0.36533696  0.59139435  0.40072805     0.10260
S1567       S  0.44863900  0.66232276  0.33010438    -0.33090
S1568       S  0.33138034  0.56479693  0.42682503    -0.33100
H1569       H  0.34651040  0.52495176  0.42120138     0.28270
H1570       H  0.43476704  0.65055528  0.29537865     0.28270
H1571       H  0.45295709  0.61621867  0.39756351     0.18860
H1572       H  0.32742822  0.61188298  0.36070229     0.18870
C1573       C  0.61016878  0.38198536  0.59519064    -0.06970
C1574       C  0.63148856  0.40648399  0.61807149    -0.18090
C1575       C  0.65012710  0.38850775  0.64822708     0.10230
C1576       C  0.64877981  0.34459352  0.65500838    -0.06890
C1577       C  0.62715107  0.32006304  0.63233631    -0.18130
C1578       C  0.60786467  0.33826305  0.60257702     0.10260
S1579       S  0.67362215  0.42364840  0.67827960    -0.33090
S1580       S  0.58152660  0.30392170  0.57446103    -0.33100
H1581       H  0.58280122  0.32867743  0.54156133     0.28270
H1582       H  0.66949443  0.39913099  0.71107108     0.28270
H1583       H  0.63212599  0.44026790  0.61365376     0.18860
H1584       H  0.62630120  0.28632225  0.63692955     0.18870
C1585       C  0.38134601  0.40850022  0.58413026    -0.06970
C1586       C  0.37091547  0.36986914  0.56980425    -0.18090
C1587       C  0.35017881  0.34264043  0.59099333     0.10230
C1588       C  0.33899895  0.35545377  0.62647225    -0.06890
C1589       C  0.34600551  0.39650511  0.63825330    -0.18130
C1590       C  0.36817402  0.42264718  0.61819981     0.10260
S1591       S  0.34191882  0.29130607  0.57274033    -0.33090
S1592       S  0.38082657  0.47125357  0.63980957    -0.33100
H1593       H  0.41161443  0.47964367  0.61946420     0.28270
H1594       H  0.35264124  0.26969324  0.60557526     0.28270
H1595       H  0.38127340  0.35957834  0.54329749     0.18860
H1596       H  0.33631259  0.40728209  0.66486684     0.18870
C1597       C  0.62826144  0.57617745  0.41090001    -0.06970
C1598       C  0.62139079  0.61859698  0.40188246    -0.18090
C1599       C  0.64480324  0.64257351  0.38091122     0.10230
C1600       C  0.67631496  0.62397931  0.36799811    -0.06890
C1601       C  0.68405192  0.58193020  0.37808031    -0.18130
C1602       C  0.66013403  0.55762975  0.39887950     0.10260
S1603       S  0.63296502  0.69703940  0.37287197    -0.33090
S1604       S  0.67075610  0.50288682  0.40685664    -0.33100
H1605       H  0.63643468  0.48852436  0.39950076     0.28270
H1606       H  0.66754166  0.71172429  0.37686359     0.28270
H1607       H  0.59739220  0.63356343  0.41151694     0.18860
H1608       H  0.70815457  0.56736331  0.36830548     0.18870
C1609       C  0.39904065  0.60876896  0.58587629    -0.06970
C1610       C  0.41299204  0.64408022  0.60341843    -0.18090
C1611       C  0.39147294  0.67120528  0.62315512     0.10230
C1612       C  0.35516749  0.66286407  0.62598344    -0.06890
C1613       C  0.34053107  0.62948485  0.60671418    -0.18130
C1614       C  0.36197951  0.60196509  0.58700146     0.10260
S1615       S  0.41180292  0.71590328  0.64438410    -0.33090
S1616       S  0.34011246  0.55780141  0.56651123    -0.33100
H1617       H  0.36504819  0.52820068  0.57958899     0.28270
H1618       H  0.38227617  0.74250650  0.63955504     0.28270
H1619       H  0.44094744  0.65079116  0.60182267     0.18860
H1620       H  0.31257390  0.62305931  0.60925798     0.18870
C1621       C  0.60472123  0.37964247  0.40180531    -0.06970
C1622       C  0.59917935  0.38311718  0.36304813    -0.18090
C1623       C  0.62189304  0.36355415  0.33827767     0.10230
C1624       C  0.65020230  0.33937869  0.35277749    -0.06890
C1625       C  0.65531453  0.33530600  0.39152944    -0.18130
C1626       C  0.63263762  0.35484227  0.41624883     0.10260
S1627       S  0.61454330  0.37257786  0.28891073    -0.33090
S1628       S  0.63990783  0.34572012  0.46559306    -0.33100
H1629       H  0.60398300  0.34620682  0.47529300     0.28270
H1630       H  0.65041638  0.37323087  0.27901312     0.28270
H1631       H  0.57774595  0.40247080  0.35198366     0.18860
H1632       H  0.67692440  0.31624666  0.40261200     0.18870
loop_ 
_geom_bond_atom_site_label_1 
_geom_bond_atom_site_label_2 
_geom_bond_distance 
_geom_bond_site_symmetry_2 
_ccdc_geom_bond_type 
Zr1           O2   2.440       .  S
Zr1           O3   2.424       .  S
Zr1           O4   2.463       .  S
Zr1           O7   2.445       .  S
Zr1           O9   2.383       .  S
Zr1          O10   2.387       .  S
Zr1          O11   2.402       .  S
Zr1          O12   2.407       .  S
O2           H58   0.990       .  S
O2           H66   0.990       .  S
O3           C23   1.283       .  A
O4           C25   1.289       .  A
O5          Zr15   2.390       .  S
O5           C24   1.279       .  A
O6          Zr14   2.399       .  S
O6           C25   1.278       .  A
O7           C24   1.286       .  A
O8          Zr16   2.382       .  S
O8           C23   1.275       .  A
O9          Zr14   2.388       .  S
O9          Zr16   2.385       .  S
O10         Zr15   2.376       .  S
O10         Zr16   2.378       .  S
O10          H45   0.966       .  S
O11         Zr14   2.392       .  S
O11         Zr31   2.390       .  S
O11          H48   0.965       .  S
O12         Zr15   2.390       .  S
O12         Zr31   2.402       .  S
Zr13         O38   2.443       .  S
Zr13         O32   2.390       .  S
Zr13         O40   2.388       .  S
Zr13         O28   2.387       .  S
Zr13         O19   2.417       .  S
Zr13         O20   2.390       .  S
Zr13         O21   2.381       .  S
Zr13         O22   2.419       .  S
Zr14         O33   2.436       .  S
Zr14         O26   2.434       .  S
Zr14         O27   2.399       .  S
Zr14         O20   2.386       .  S
Zr14         O21   2.380       .  S
Zr15         O17   2.436       .  S
Zr15         O39   2.438       .  S
Zr15         O41   2.369       .  S
Zr15         O19   2.387       .  S
Zr15         O22   2.385       .  S
Zr16         O42   2.436       .  S
Zr16         O43   2.439       .  S
Zr16         O18   2.437       .  S
Zr16         O19   2.378       .  S
Zr16         O20   2.382       .  S
O17          H54   0.990       .  S
O18          H49   0.990       .  S
O18          H63   0.990       .  S
O20          H46   0.966       .  S
O21         Zr31   2.382       .  S
O22         Zr31   2.362       .  S
O22          H47   0.968       .  S
C23        C1621   1.453       .  S
C24        C1597   1.476       .  S
C25        C1573   1.473       .  S
O26          H62   0.990       .  S
O27          C29   1.278       .  A
O28          C29   1.274       .  A
C29        C1585   1.432       .  S
O30         Zr31   2.440       .  S
O30          H59   0.990       .  S
Zr31         O34   2.436       .  S
Zr31         O35   2.442       .  S
Zr31         O36   2.432       .  S
O32          C37   1.274       .  A
O33          H50   0.990       .  S
O33          H65   0.990       .  S
O34          H51   0.990       .  S
O35          H55   0.990       .  S
O35          H64   0.989       .  S
O36          C37   1.286       .  A
C37        C1609   1.475       .  S
O38          H57   0.990       .  S
O38          H61   0.990       .  S
O39          H53   0.990       .  S
O39          H60   0.990       .  S
O40          C44   1.261       .  A
O41          C44   1.259       .  A
O42          H52   0.990       .  S
O43          H56   0.990       .  S
C44        C1561   1.452       .  S
Zr67         O68   2.441       .  S
Zr67         O69   2.466       .  S
Zr67         O70   2.475       .  S
Zr67         O73   2.396       .  S
Zr67         O75   2.366       .  S
Zr67         O76   2.391       .  S
Zr67         O77   2.402       .  S
Zr67         O78   2.420       .  S
O68         H124   0.991       .  S
O68         H132   0.990       .  S
O69          C89   1.290       .  A
O70          C91   1.290       .  A
O71         Zr81   2.425   1_655  S
O71          C90   1.284       .  A
O72         Zr80   2.406   1_655  S
O72          C91   1.277       .  A
O73          C90   1.277       .  A
O74         Zr82   2.418   1_655  S
O74          C89   1.281       .  A
O75         Zr80   2.386   1_655  S
O75         Zr82   2.384   1_655  S
O76         Zr81   2.397   1_655  S
O76         Zr82   2.373   1_655  S
O76         H111   0.965       .  S
O77         Zr80   2.385   1_655  S
O77         Zr97   2.409   1_655  S
O77         H114   0.966       .  S
O78         Zr81   2.396   1_655  S
O78         Zr97   2.395   1_655  S
Zr79        O104   2.448       .  S
Zr79         O98   2.435       .  S
Zr79        O106   2.446       .  S
Zr79         O94   2.412       .  S
Zr79         O85   2.395       .  S
Zr79         O86   2.408       .  S
Zr79         O87   2.380       .  S
Zr79         O88   2.377       .  S
Zr80         O99   2.438       .  S
Zr80         O92   2.435       .  S
Zr80         O93   2.376       .  S
Zr80         O86   2.395       .  S
Zr80         O87   2.384       .  S
Zr81         O83   2.434       .  S
Zr81        O105   2.438       .  S
Zr81        O107   2.455       .  S
Zr81         O85   2.384       .  S
Zr81         O88   2.384       .  S
Zr82        O108   2.435       .  S
Zr82        O109   2.435       .  S
Zr82         O84   2.437       .  S
Zr82         O85   2.398       .  S
Zr82         O86   2.391       .  S
O83         H120   0.990       .  S
O84         H115   0.990       .  S
O84         H129   0.990       .  S
O86         H112   0.966       .  S
O87         Zr97   2.365       .  S
O88         Zr97   2.385       .  S
O88         H113   0.966       .  S
C89        C1528   1.501       .  S
C90        C1501   1.448       .  S
C91        C1552   1.479       .  S
O92         H128   0.990       .  S
O93          C95   1.276       .  A
O94          C95   1.280       .  A
C95        C1489   1.444       .  S
O96         Zr97   2.440   1_655  S
O96         H125   0.990       .  S
Zr97        O100   2.437       .  S
Zr97        O101   2.441   1_455  S
Zr97        O102   2.442       .  S
O98         C103   1.284       .  A
O99         H116   0.990       .  S
O99         H131   0.990   1_455  S
O100        H117   0.990       .  S
O101        H121   0.990   1_655  S
O101        H130   0.989   1_655  S
O102        C103   1.286       .  A
C103       C1540   1.502       .  S
O104        H123   0.990       .  S
O104        H127   0.990       .  S
O105        H119   0.990       .  S
O105        H126   0.990   1_455  S
O106        C110   1.287       .  A
O107        C110   1.289       .  A
O108        H118   0.990       .  S
O109        H122   0.990       .  S
C110       C1513   1.503       .  S
Zr133       O134   2.438       .  S
Zr133       O135   2.409       .  S
Zr133       O136   2.374       .  S
Zr133       O139   2.422       .  S
Zr133       O141   2.389       .  S
Zr133       O142   2.368       .  S
Zr133       O143   2.404       .  S
Zr133       O144   2.383       .  S
O134        H190   0.990       .  S
O134        H198   0.990       .  S
O135        C155   1.279       .  A
O136        C157   1.271       .  A
O137       Zr147   2.448       .  S
O137        C156   1.287       .  A
O138       Zr146   2.396       .  S
O138        C157   1.282       .  A
O139        C156   1.282       .  A
O140       Zr148   2.426       .  S
O140        C155   1.282       .  A
O141       Zr146   2.382       .  S
O141       Zr148   2.359       .  S
O142       Zr147   2.367       .  S
O142       Zr148   2.376       .  S
O142        H177   0.965       .  S
O143       Zr146   2.394       .  S
O143       Zr163   2.380       .  S
O143        H180   0.966       .  S
O144       Zr147   2.372       .  S
O144       Zr163   2.391       .  S
Zr145       O170   2.446       .  S
Zr145       O164   2.422       .  S
Zr145       O172   2.488       .  S
Zr145       O160   2.533       .  S
Zr145       O151   2.413       .  S
Zr145       O152   2.402       .  S
Zr145       O153   2.383       .  S
Zr145       O154   2.406       .  S
Zr146       O165   2.437       .  S
Zr146       O158   2.433       .  S
Zr146       O159   2.434   1_554  S
Zr146       O152   2.391   1_554  S
Zr146       O153   2.371   1_554  S
Zr147       O149   2.434       .  S
Zr147       O171   2.438       .  S
Zr147       O173   2.386   1_554  S
Zr147       O151   2.405   1_554  S
Zr147       O154   2.393   1_554  S
Zr148       O174   2.436       .  S
Zr148       O175   2.434   1_554  S
Zr148       O150   2.436       .  S
Zr148       O151   2.385   1_554  S
Zr148       O152   2.403   1_554  S
O149        H186   0.990       .  S
O150        H181   0.990       .  S
O150        H195   0.990       .  S
O152        H178   0.966       .  S
O153       Zr163   2.381   1_556  S
O154       Zr163   2.384   1_556  S
O154        H179   0.966       .  S
C155       C1453   1.456       .  S
C156       C1441   1.490       .  S
C157       C1429   1.455       .  S
O158        H194   0.990       .  S
O159        C161   1.284       .  A
O160        C161   1.303       .  A
C161       C1477   1.527       .  S
O162       Zr163   2.441       .  S
O162        H191   0.990       .  S
Zr163       O166   2.438       .  S
Zr163       O167   2.441       .  S
Zr163       O168   2.387   1_554  S
O164        C169   1.283       .  A
O165        H182   0.990       .  S
O165        H197   0.990       .  S
O166        H183   0.990       .  S
O167        H187   0.990       .  S
O167        H196   0.990   1_554  S
O168        C169   1.277       .  A
C169       C1417   1.467       .  S
O170        H189   0.990       .  S
O170        H193   0.990       .  S
O171        H185   0.990       .  S
O171        H192   0.990       .  S
O172        C176   1.296       .  A
O173        C176   1.277       .  A
O174        H184   0.990       .  S
O175        H188   0.990       .  S
C176       C1465   1.484       .  S
Zr199       O200   2.437       .  S
Zr199       O201   2.440       .  S
Zr199       O202   2.439       .  S
Zr199       O205   2.425       .  S
Zr199       O207   2.373       .  S
Zr199       O208   2.380       .  S
Zr199       O209   2.409       .  S
Zr199       O210   2.412       .  S
O200        H256   0.990       .  S
O200        H264   0.990       .  S
O201        C221   1.285       .  A
O202        C223   1.284       .  A
O203       Zr213   2.391       .  S
O203        C222   1.278       .  A
O204       Zr212   2.386   1_565  S
O204        C223   1.277       .  A
O205        C222   1.282       .  A
O206       Zr214   2.447   1_565  S
O206        C221   1.286       .  A
O207       Zr212   2.377   1_565  S
O207       Zr214   2.366   1_565  S
O208       Zr213   2.380       .  S
O208       Zr214   2.366   1_565  S
O208        H243   0.966       .  S
O209       Zr212   2.389   1_565  S
O209       Zr229   2.406       .  S
O209        H246   0.966       .  S
O210       Zr213   2.381       .  S
O210       Zr229   2.404       .  S
Zr211       O236   2.449       .  S
Zr211       O230   2.463       .  S
Zr211       O238   2.449       .  S
Zr211       O226   2.437       .  S
Zr211       O217   2.409       .  S
Zr211       O218   2.429       .  S
Zr211       O219   2.378       .  S
Zr211       O220   2.384       .  S
Zr212       O231   2.440   1_545  S
Zr212       O224   2.437       .  S
Zr212       O225   2.392       .  S
Zr212       O218   2.393       .  S
Zr212       O219   2.379       .  S
Zr213       O215   2.435       .  S
Zr213       O237   2.439       .  S
Zr213       O239   2.387   1_565  S
Zr213       O217   2.383   1_565  S
Zr213       O220   2.379   1_565  S
Zr214       O240   2.435       .  S
Zr214       O241   2.435       .  S
Zr214       O216   2.437       .  S
Zr214       O217   2.407       .  S
Zr214       O218   2.400       .  S
O215        H252   0.990       .  S
O216        H247   0.990       .  S
O216        H261   0.990   1_545  S
O218        H244   0.966       .  S
O219       Zr229   2.356   1_545  S
O220       Zr229   2.381   1_545  S
O220        H245   0.966       .  S
C221       C1360   1.484       .  S
C222       C1381   1.455       .  S
C223       C1405   1.479       .  S
O224        H260   0.990       .  S
O225        C227   1.270       .  A
O226        C227   1.278       .  A
C227       C1348   1.468       .  S
O228       Zr229   2.440       .  S
O228        H257   0.990       .  S
Zr229       O232   2.438       .  S
Zr229       O233   2.442       .  S
Zr229       O234   2.446   1_565  S
O230        C235   1.290       .  A
O231        H248   0.989       .  S
O231        H263   0.990       .  S
O232        H249   0.990       .  S
O233        H253   0.990       .  S
O233        H262   0.989   1_565  S
O234        C235   1.286       .  A
C235       C1393   1.493       .  S
O236        H255   0.991       .  S
O236        H259   0.989       .  S
O237        H251   0.990       .  S
O237        H258   0.990       .  S
O238        C242   1.286       .  A
O239        C242   1.278       .  A
O240        H250   0.990   1_545  S
O241        H254   0.990       .  S
C242       C1369   1.481       .  S
Zr265       O266   2.437       .  S
Zr265       O267   2.406   1_455  S
Zr265       O268   2.497       .  S
Zr265       O271   2.540   1_455  S
Zr265       O273   2.409       .  S
Zr265       O274   2.381   1_455  S
Zr265       O275   2.419       .  S
Zr265       O276   2.401       .  S
O266        H322   0.990       .  S
O266        H330   0.990       .  S
O267        C287   1.278       .  A
O268        C289   1.298       .  A
O269       Zr279   2.434   1_556  S
O269        C288   1.284       .  A
O270       Zr278   2.374   1_556  S
O270        C289   1.276       .  A
O271        C288   1.307       .  A
O272       Zr280   2.431   1_556  S
O272        C287   1.285       .  A
O273       Zr278   2.410   1_556  S
O273       Zr280   2.369   1_456  S
O274       Zr279   2.376   1_556  S
O274       Zr280   2.368   1_556  S
O274        H309   0.965       .  S
O275       Zr278   2.419   1_556  S
O275       Zr295   2.370   1_556  S
O275        H312   0.965       .  S
O276       Zr279   2.389   1_456  S
O276       Zr295   2.394   1_556  S
Zr277       O302   2.442       .  S
Zr277       O296   2.414       .  S
Zr277       O304   2.410   1_455  S
Zr277       O292   2.474       .  S
Zr277       O283   2.411   1_455  S
Zr277       O284   2.394       .  S
Zr277       O285   2.366       .  S
Zr277       O286   2.400       .  S
Zr278       O297   2.436       .  S
Zr278       O290   2.433       .  S
Zr278       O291   2.481       .  S
Zr278       O284   2.371       .  S
Zr278       O285   2.363       .  S
Zr279       O281   2.434       .  S
Zr279       O303   2.438       .  S
Zr279       O305   2.401       .  S
Zr279       O283   2.395       .  S
Zr279       O286   2.384   1_655  S
Zr280       O306   2.436       .  S
Zr280       O307   2.435       .  S
Zr280       O282   2.435       .  S
Zr280       O283   2.390       .  S
Zr280       O284   2.406   1_655  S
O281        H318   0.990       .  S
O282        H313   0.990       .  S
O282        H327   0.990   1_554  S
O284        H310   0.966       .  S
O285       Zr295   2.388       .  S
O286       Zr295   2.373       .  S
O286        H311   0.966       .  S
C287       C1336   1.486       .  S
C288       C1324   1.531       .  S
C289       C1300   1.483       .  S
O290        H326   0.990       .  S
O291        C293   1.293       .  A
O292        C293   1.291       .  A
C293       C1285   1.525       .  S
O294       Zr295   2.441   1_556  S
O294        H323   0.990       .  S
Zr295       O298   2.438   1_554  S
Zr295       O299   2.439   1_554  S
Zr295       O300   2.391       .  S
O296        C301   1.281       .  A
O297        H314   0.990   1_554  S
O297        H329   0.990   1_554  S
O298        H315   0.990       .  S
O299        H319   0.990   1_556  S
O299        H328   0.989   1_556  S
O300        C301   1.278       .  A
C301       C1276   1.462       .  S
O302        H321   0.990   1_455  S
O302        H325   0.990       .  S
O303        H317   0.990       .  S
O303        H324   0.990       .  S
O304        C308   1.279       .  A
O305        C308   1.280       .  A
O306        H316   0.990       .  S
O307        H320   0.990       .  S
C308       C1312   1.447       .  S
Zr331       O332   2.439       .  S
Zr331       O333   2.412       .  S
Zr331       O334   2.433   1_565  S
Zr331       O337   2.470       .  S
Zr331       O339   2.385       .  S
Zr331       O340   2.379       .  S
Zr331       O341   2.412   1_565  S
Zr331       O342   2.398       .  S
O332        H388   0.990       .  S
O332        H396   0.990   1_565  S
O333        C353   1.280       .  A
O334        C355   1.284       .  A
O335       Zr345   2.476   1_655  S
O335        C354   1.292       .  A
O336       Zr344   2.380   1_655  S
O336        C355   1.274       .  A
O337        C354   1.291       .  A
O338       Zr346   2.386   1_655  S
O338        C353   1.276       .  A
O339       Zr344   2.376   1_665  S
O339       Zr346   2.370   1_655  S
O340       Zr345   2.370   1_655  S
O340       Zr346   2.387   1_655  S
O340        H375   0.966       .  S
O341       Zr344   2.401   1_655  S
O341       Zr361   2.403   1_655  S
O341        H378   0.966       .  S
O342       Zr345   2.382   1_655  S
O342       Zr361   2.412   1_665  S
Zr343       O368   2.443   1_545  S
Zr343       O362   2.418       .  S
Zr343       O370   2.393   1_545  S
Zr343       O358   2.458       .  S
Zr343       O349   2.405   1_545  S
Zr343       O350   2.385   1_545  S
Zr343       O351   2.365       .  S
Zr343       O352   2.396   1_545  S
Zr344       O363   2.436       .  S
Zr344       O356   2.433       .  S
Zr344       O357   2.408       .  S
Zr344       O350   2.382   1_545  S
Zr344       O351   2.377       .  S
Zr345       O347   2.434       .  S
Zr345       O369   2.438       .  S
Zr345       O371   2.411       .  S
Zr345       O349   2.400       .  S
Zr345       O352   2.403       .  S
Zr346       O372   2.436       .  S
Zr346       O373   2.436       .  S
Zr346       O348   2.438       .  S
Zr346       O349   2.370       .  S
Zr346       O350   2.390       .  S
O347        H384   0.990       .  S
O348        H379   0.990       .  S
O348        H393   0.989       .  S
O350        H376   0.966   1_565  S
O351       Zr361   2.371       .  S
O352       Zr361   2.369   1_565  S
O352        H377   0.966       .  S
C353       C1261   1.456       .  S
C354       C1228   1.533       .  S
C355       C1237   1.451       .  S
O356        H392   0.989       .  S
O357        C359   1.280       .  A
O358        C359   1.290       .  A
C359       C1213   1.486       .  S
O360       Zr361   2.439   1_655  S
O360        H389   0.990       .  S
Zr361       O364   2.436       .  S
Zr361       O365   2.439       .  S
Zr361       O366   2.457       .  S
O362        C367   1.281       .  A
O363        H380   0.990       .  S
O363        H395   0.990   1_455  S
O364        H381   0.990       .  S
O365        H385   0.990       .  S
O365        H394   0.989       .  S
O366        C367   1.288       .  A
C367       C1204   1.477       .  S
O368        H387   0.990       .  S
O368        H391   0.990       .  S
O369        H383   0.990       .  S
O369        H390   0.990       .  S
O370        C374   1.278       .  A
O371        C374   1.282       .  A
O372        H382   0.990       .  S
O373        H386   0.990       .  S
C374       C1252   1.439       .  S
Zr397       O398   2.438   1_565  S
Zr397       O399   2.500       .  S
Zr397       O400   2.464   1_565  S
Zr397       O403   2.450       .  S
Zr397       O405   2.386       .  S
Zr397       O406   2.382       .  S
Zr397       O407   2.428   1_565  S
Zr397       O408   2.422       .  S
O398        H454   0.990   1_545  S
O398        H462   0.990       .  S
O399        C419   1.297       .  A
O400        C421   1.286       .  A
O401       Zr411   2.403   1_556  S
O401        C420   1.279       .  A
O402       Zr410   2.382   1_556  S
O402        C421   1.277       .  A
O403        C420   1.287       .  A
O404       Zr412   2.445   1_556  S
O404        C419   1.286       .  A
O405       Zr410   2.392   1_566  S
O405       Zr412   2.374   1_556  S
O406       Zr411   2.395   1_556  S
O406       Zr412   2.375   1_556  S
O406        H441   0.967       .  S
O407       Zr410   2.396   1_556  S
O407       Zr427   2.405   1_556  S
O407        H444   0.966       .  S
O408       Zr411   2.383   1_556  S
O408       Zr427   2.411   1_566  S
Zr409       O434   2.441   1_545  S
Zr409       O428   2.459       .  S
Zr409       O436   2.409   1_545  S
Zr409       O424   2.430       .  S
Zr409       O415   2.412   1_545  S
Zr409       O416   2.409   1_545  S
Zr409       O417   2.369       .  S
Zr409       O418   2.382   1_545  S
Zr410       O429   2.438       .  S
Zr410       O422   2.436       .  S
Zr410       O423   2.413       .  S
Zr410       O416   2.377   1_545  S
Zr410       O417   2.375       .  S
Zr411       O413   2.436       .  S
Zr411       O435   2.436       .  S
Zr411       O437   2.413       .  S
Zr411       O415   2.382       .  S
Zr411       O418   2.384       .  S
Zr412       O438   2.435       .  S
Zr412       O439   2.435       .  S
Zr412       O414   2.435       .  S
Zr412       O415   2.399       .  S
Zr412       O416   2.408       .  S
O413        H450   0.990       .  S
O414        H445   0.990       .  S
O414        H459   0.989       .  S
O416        H442   0.966       .  S
O417       Zr427   2.363       .  S
O418       Zr427   2.371   1_565  S
O418        H443   0.966   1_565  S
C419       C1165   1.518       .  S
C420       C1192   1.467       .  S
C421       C1177   1.489       .  S
O422        H458   0.990   1_554  S
O423        C425   1.283       .  A
O424        C425   1.283       .  A
C425       C1129   1.488       .  S
O426       Zr427   2.439   1_556  S
O426        H455   0.990       .  S
Zr427       O430   2.437       .  S
Zr427       O431   2.440       .  S
Zr427       O432   2.459       .  S
O428        C433   1.288       .  A
O429        H446   0.990   1_554  S
O429        H461   0.990   1_554  S
O430        H447   0.990       .  S
O431        H451   0.990       .  S
O431        H460   0.989       .  S
O432        C433   1.290       .  A
C433       C1141   1.521       .  S
O434        H453   0.990       .  S
O434        H457   0.990       .  S
O435        H449   0.990       .  S
O435        H456   0.990       .  S
O436        C440   1.280       .  A
O437        C440   1.281       .  A
O438        H448   0.990       .  S
O439        H452   0.990       .  S
C440       C1153   1.459       .  S
Zr463       O464   2.438   1_565  S
Zr463       O465   2.437   1_554  S
Zr463       O466   2.467       .  S
Zr463       O469   2.470   1_564  S
Zr463       O471   2.386       .  S
Zr463       O472   2.386   1_564  S
Zr463       O473   2.412   1_565  S
Zr463       O474   2.409   1_565  S
O464        H520   0.990       .  S
O464        H528   0.990       .  S
O465        C485   1.284       .  A
O466        C487   1.290       .  A
O467       Zr477   2.422       .  S
O467        C486   1.283       .  A
O468       Zr476   2.399       .  S
O468        C487   1.278       .  A
O469        C486   1.292       .  A
O470       Zr478   2.447       .  S
O470        C485   1.288       .  A
O471       Zr476   2.385       .  S
O471       Zr478   2.369   1_554  S
O472       Zr477   2.387       .  S
O472       Zr478   2.372   1_545  S
O472        H507   0.965       .  S
O473       Zr476   2.396   1_545  S
O473       Zr493   2.395       .  S
O473        H510   0.965       .  S
O474       Zr477   2.386   1_554  S
O474       Zr493   2.396       .  S
Zr475       O500   2.441   1_544  S
Zr475       O494   2.462       .  S
Zr475       O502   2.525   1_554  S
Zr475       O490   2.514   1_545  S
Zr475       O481   2.418   1_554  S
Zr475       O482   2.422   1_545  S
Zr475       O483   2.384       .  S
Zr475       O484   2.389       .  S
Zr476       O495   2.436       .  S
Zr476       O488   2.436       .  S
Zr476       O489   2.402   1_455  S
Zr476       O482   2.392   1_455  S
Zr476       O483   2.383   1_465  S
Zr477       O479   2.433       .  S
Zr477       O501   2.439       .  S
Zr477       O503   2.406   1_455  S
Zr477       O481   2.391   1_455  S
Zr477       O484   2.391   1_456  S
Zr478       O504   2.435       .  S
Zr478       O505   2.436   1_455  S
Zr478       O480   2.437       .  S
Zr478       O481   2.403   1_465  S
Zr478       O482   2.406   1_456  S
O479        H516   0.990       .  S
O480        H511   0.990       .  S
O480        H525   0.990       .  S
O482        H508   0.966       .  S
O483       Zr493   2.374   1_655  S
O484       Zr493   2.381   1_655  S
O484        H509   0.966       .  S
C485       C1093   1.490       .  S
C486       C1081   1.492       .  S
C487       C1069   1.473       .  S
O488        H524   0.990       .  S
O489        C491   1.279       .  A
O490        C491   1.300       .  A
C491       C1120   1.500       .  S
O492       Zr493   2.440       .  S
O492        H521   0.990       .  S
Zr493       O496   2.437       .  S
Zr493       O497   2.441       .  S
Zr493       O498   2.423   1_455  S
O494        C499   1.290       .  A
O495        H512   0.990       .  S
O495        H527   0.989       .  S
O496        H513   0.990       .  S
O497        H517   0.990       .  S
O497        H526   0.989       .  S
O498        C499   1.281       .  A
C499       C1057   1.480       .  S
O500        H519   0.990       .  S
O500        H523   0.989   1_556  S
O501        H515   0.990       .  S
O501        H522   0.990       .  S
O502        C506   1.304       .  A
O503        C506   1.280       .  A
O504        H514   0.990       .  S
O505        H518   0.990       .  S
C506       C1105   1.523       .  S
Zr529       O530   2.439       .  S
Zr529       O531   2.424       .  S
Zr529       O532   2.447       .  S
Zr529       O535   2.451       .  S
Zr529       O537   2.385       .  S
Zr529       O538   2.382       .  S
Zr529       O539   2.406       .  S
Zr529       O540   2.402       .  S
O530        H586   0.990       .  S
O530        H594   0.990       .  S
O531        C551   1.283       .  A
O532        C553   1.286       .  A
O533       Zr543   2.435       .  S
O533        C552   1.283       .  A
O534       Zr542   2.427       .  S
O534        C553   1.283       .  A
O535        C552   1.288       .  A
O536       Zr544   2.417       .  S
O536        C551   1.280       .  A
O537       Zr542   2.393       .  S
O537       Zr544   2.379       .  S
O538       Zr543   2.381       .  S
O538       Zr544   2.375       .  S
O538        H573   0.966       .  S
O539       Zr542   2.398       .  S
O539       Zr559   2.392       .  S
O539        H576   0.965       .  S
O540       Zr543   2.387       .  S
O540       Zr559   2.404       .  S
Zr541       O566   2.445       .  S
Zr541       O560   2.479       .  S
Zr541       O568   2.408       .  S
Zr541       O556   2.400       .  S
Zr541       O547   2.406       .  S
Zr541       O548   2.410       .  S
Zr541       O549   2.372       .  S
Zr541       O550   2.382       .  S
Zr542       O561   2.435       .  S
Zr542       O554   2.436       .  S
Zr542       O555   2.428       .  S
Zr542       O548   2.388       .  S
Zr542       O549   2.389       .  S
Zr543       O545   2.435       .  S
Zr543       O567   2.441       .  S
Zr543       O569   2.403       .  S
Zr543       O547   2.383       .  S
Zr543       O550   2.392       .  S
Zr544       O570   2.436       .  S
Zr544       O571   2.437       .  S
Zr544       O546   2.437       .  S
Zr544       O547   2.387       .  S
Zr544       O548   2.390       .  S
O545        H582   0.990       .  S
O546        H577   0.990       .  S
O546        H591   0.990       .  S
O548        H574   0.965       .  S
O549       Zr559   2.375       .  S
O550       Zr559   2.373       .  S
O550        H575   0.966       .  S
C551       C1600   1.475       .  S
C552       C1357   1.484       .  S
C553       C1444   1.472       .  S
O554        H590   0.990       .  S
O555        C557   1.286       .  A
O556        C557   1.275       .  A
C557       C1309   1.480       .  S
O558       Zr559   2.438       .  S
O558        H587   0.990       .  S
Zr559       O562   2.437       .  S
Zr559       O563   2.439       .  S
Zr559       O564   2.431       .  S
O560        C565   1.294       .  A
O561        H578   0.990       .  S
O561        H593   0.990       .  S
O562        H579   0.990       .  S
O563        H583   0.990       .  S
O563        H592   0.989       .  S
O564        C565   1.283       .  A
C565       C1117   1.499       .  S
O566        H585   0.989       .  S
O566        H589   0.990       .  S
O567        H581   0.990       .  S
O567        H588   0.990       .  S
O568        C572   1.279       .  A
O569        C572   1.278       .  A
O570        H580   0.990       .  S
O571        H584   0.990       .  S
C572       C1264   1.451       .  S
Zr595       O596   2.438       .  S
Zr595       O597   2.421       .  S
Zr595       O598   2.501       .  S
Zr595       O601   2.517       .  S
Zr595       O603   2.397       .  S
Zr595       O604   2.381       .  S
Zr595       O605   2.413       .  S
Zr595       O606   2.406       .  S
O596        H652   0.990       .  S
O596        H660   0.990       .  S
O597        C617   1.283       .  A
O598        C619   1.297       .  A
O599       Zr609   2.406       .  S
O599        C618   1.280       .  A
O600       Zr608   2.393       .  S
O600        C619   1.278       .  A
O601        C618   1.301       .  A
O602       Zr610   2.417       .  S
O602        C617   1.282       .  A
O603       Zr608   2.387       .  S
O603       Zr610   2.380       .  S
O604       Zr609   2.377       .  S
O604       Zr610   2.373       .  S
O604        H639   0.965       .  S
O605       Zr608   2.399       .  S
O605       Zr625   2.388       .  S
O605        H642   0.965       .  S
O606       Zr609   2.390       .  S
O606       Zr625   2.402       .  S
Zr607       O632   2.440       .  S
Zr607       O626   2.417       .  S
Zr607       O634   2.451       .  S
Zr607       O622   2.456       .  S
Zr607       O613   2.406       .  S
Zr607       O614   2.405       .  S
Zr607       O615   2.376       .  S
Zr607       O616   2.388       .  S
Zr608       O627   2.438       .  S
Zr608       O620   2.435       .  S
Zr608       O621   2.407       .  S
Zr608       O614   2.385       .  S
Zr608       O615   2.374       .  S
Zr609       O611   2.434       .  S
Zr609       O633   2.438       .  S
Zr609       O635   2.400       .  S
Zr609       O613   2.390       .  S
Zr609       O616   2.382       .  S
Zr610       O636   2.435       .  S
Zr610       O637   2.437       .  S
Zr610       O612   2.436       .  S
Zr610       O613   2.395       .  S
Zr610       O614   2.393       .  S
O611        H648   0.990       .  S
O612        H643   0.990       .  S
O612        H657   0.990       .  S
O614        H640   0.966       .  S
O615       Zr625   2.368       .  S
O616       Zr625   2.370       .  S
O616        H641   0.966       .  S
C617       C1333   1.470       .  S
C618       C1108   1.525       .  S
C619       C1525   1.500       .  S
O620        H656   0.990       .  S
O621        C623   1.280       .  A
O622        C623   1.289       .  A
C623       C1576   1.478       .  S
O624       Zr625   2.441       .  S
O624        H653   0.990       .  S
Zr625       O628   2.438       .  S
Zr625       O629   2.439       .  S
Zr625       O630   2.434       .  S
O626        C631   1.282       .  A
O627        H644   0.990       .  S
O627        H659   0.990       .  S
O628        H645   0.990       .  S
O629        H649   0.989       .  S
O629        H658   0.989       .  S
O630        C631   1.285       .  A
C631       C1372   1.484       .  S
O632        H651   0.990       .  S
O632        H655   0.990       .  S
O633        H647   0.990       .  S
O633        H654   0.989       .  S
O634        C638   1.287       .  A
O635        C638   1.280       .  A
O636        H646   0.990       .  S
O637        H650   0.990       .  S
C638       C1180   1.479       .  S
Zr661       O662   2.442       .  S
Zr661       O663   2.447       .  S
Zr661       O664   2.420       .  S
Zr661       O667   2.406       .  S
Zr661       O669   2.379       .  S
Zr661       O670   2.380       .  S
Zr661       O671   2.408       .  S
Zr661       O672   2.402       .  S
O662        H718   0.991       .  S
O662        H726   0.990       .  S
O663        C683   1.286       .  A
O664        C685   1.279       .  A
O665       Zr675   2.393       .  S
O665        C684   1.278       .  A
O666       Zr674   2.409       .  S
O666        C685   1.277       .  A
O667        C684   1.280       .  A
O668       Zr676   2.445       .  S
O668        C683   1.287       .  A
O669       Zr674   2.385       .  S
O669       Zr676   2.375       .  S
O670       Zr675   2.388       .  S
O670       Zr676   2.372       .  S
O670        H705   0.966       .  S
O671       Zr674   2.395       .  S
O671       Zr691   2.389       .  S
O671        H708   0.964       .  S
O672       Zr675   2.381       .  S
O672       Zr691   2.389       .  S
Zr673       O698   2.446       .  S
Zr673       O692   2.447       .  S
Zr673       O700   2.471       .  S
Zr673       O688   2.422       .  S
Zr673       O679   2.402       .  S
Zr673       O680   2.424       .  S
Zr673       O681   2.384       .  S
Zr673       O682   2.376       .  S
Zr674       O693   2.444       .  S
Zr674       O686   2.434       .  S
Zr674       O687   2.397       .  S
Zr674       O680   2.396       .  S
Zr674       O681   2.381       .  S
Zr675       O677   2.433       .  S
Zr675       O699   2.437       .  S
Zr675       O701   2.398       .  S
Zr675       O679   2.381       .  S
Zr675       O682   2.375       .  S
Zr676       O702   2.435       .  S
Zr676       O703   2.435       .  S
Zr676       O678   2.437       .  S
Zr676       O679   2.406       .  S
Zr676       O680   2.405       .  S
O677        H714   0.990       .  S
O678        H709   0.990       .  S
O678        H723   0.990       .  S
O680        H706   0.966       .  S
O681       Zr691   2.359       .  S
O682       Zr691   2.383       .  S
O682        H707   0.966       .  S
C683       C1516   1.506       .  S
C684       C1249   1.458       .  S
C685       C1612   1.455       .  S
O686        H722   0.990       .  S
O687        C689   1.275       .  A
O688        C689   1.280       .  A
C689       C1420   1.458       .  S
O690       Zr691   2.439       .  S
O690        H719   0.990       .  S
Zr691       O694   2.439       .  S
Zr691       O695   2.439       .  S
Zr691       O696   2.412       .  S
O692        C697   1.287       .  A
O693        H710   0.990       .  S
O693        H725   0.990       .  S
O694        H711   0.990       .  S
O695        H715   0.990       .  S
O695        H724   0.989       .  S
O696        C697   1.279       .  A
C697       C1189   1.468       .  S
O698        H717   0.990       .  S
O698        H721   0.990       .  S
O699        H713   0.990       .  S
O699        H720   0.990       .  S
O700        C704   1.290       .  A
O701        C704   1.280       .  A
O702        H712   0.990       .  S
O703        H716   0.990       .  S
C704       C1096   1.507       .  S
Zr727       O728   2.439       .  S
Zr727       O729   2.470       .  S
Zr727       O730   2.531       .  S
Zr727       O733   2.467       .  S
Zr727       O735   2.377       .  S
Zr727       O736   2.398       .  S
Zr727       O737   2.412       .  S
Zr727       O738   2.427       .  S
O728        H784   0.990       .  S
O728        H792   0.990       .  S
O729        C749   1.292       .  A
O730        C751   1.302       .  A
O731       Zr741   2.419       .  S
O731        C750   1.282       .  A
O732       Zr740   2.431       .  S
O732        C751   1.282       .  A
O733        C750   1.291       .  A
O734       Zr742   2.380       .  S
O734        C749   1.274       .  A
O735       Zr740   2.384       .  S
O735       Zr742   2.392       .  S
O736       Zr741   2.390       .  S
O736       Zr742   2.379       .  S
O736        H771   0.966       .  S
O737       Zr740   2.384       .  S
O737       Zr757   2.412       .  S
O737        H774   0.965       .  S
O738       Zr741   2.395       .  S
O738       Zr757   2.405       .  S
Zr739       O764   2.454       .  S
Zr739       O758   2.453       .  S
Zr739       O766   2.459       .  S
Zr739       O754   2.425       .  S
Zr739       O745   2.398       .  S
Zr739       O746   2.414       .  S
Zr739       O747   2.390       .  S
Zr739       O748   2.383       .  S
Zr740       O759   2.438       .  S
Zr740       O752   2.435       .  S
Zr740       O753   2.373       .  S
Zr740       O746   2.401       .  S
Zr740       O747   2.393       .  S
Zr741       O743   2.433       .  S
Zr741       O765   2.439       .  S
Zr741       O767   2.431       .  S
Zr741       O745   2.385       .  S
Zr741       O748   2.391       .  S
Zr742       O768   2.436       .  S
Zr742       O769   2.437       .  S
Zr742       O744   2.438       .  S
Zr742       O745   2.388       .  S
Zr742       O746   2.371       .  S
O743        H780   0.990       .  S
O744        H775   0.990       .  S
O744        H789   0.990       .  S
O746        H772   0.966       .  S
O747       Zr757   2.361       .  S
O748       Zr757   2.378       .  S
O748        H773   0.966       .  S
C749       C1297   1.479       .  S
C750       C1084   1.484       .  S
C751       C1480   1.521       .  S
O752        H788   0.990       .  S
O753        C755   1.277       .  A
O754        C755   1.281       .  A
C755       C1588   1.457       .  S
O756       Zr757   2.439       .  S
O756        H785   0.990       .  S
Zr757       O760   2.436       .  S
Zr757       O761   2.441       .  S
Zr757       O762   2.460       .  S
O758        C763   1.289       .  A
O759        H776   0.990       .  S
O759        H791   0.990       .  S
O760        H777   0.990       .  S
O761        H781   0.990       .  S
O761        H790   0.989       .  S
O762        C763   1.289       .  A
C763       C1396   1.505       .  S
O764        H783   0.990       .  S
O764        H787   0.990       .  S
O765        H779   0.990       .  S
O765        H786   0.990       .  S
O766        C770   1.289       .  A
O767        C770   1.285       .  A
O768        H778   0.990       .  S
O769        H782   0.990       .  S
C770       C1201   1.489       .  S
Zr793       O794   2.438       .  S
Zr793       O795   2.401       .  S
Zr793       O796   2.404       .  S
Zr793       O799   2.387       .  S
Zr793       O801   2.377       .  S
Zr793       O802   2.392       .  S
Zr793       O803   2.392       .  S
Zr793       O804   2.398       .  S
O794        H850   0.990       .  S
O794        H858   0.990       .  S
O795        C815   1.278       .  A
O796        C817   1.278       .  A
O797       Zr807   2.410       .  S
O797        C816   1.274       .  A
O798       Zr806   2.422       .  S
O798        C817   1.282       .  A
O799        C816   1.272       .  A
O800       Zr808   2.421       .  S
O800        C815   1.283       .  A
O801       Zr806   2.376       .  S
O801       Zr808   2.376       .  S
O802       Zr807   2.380       .  S
O802       Zr808   2.366       .  S
O802        H837   0.965       .  S
O803       Zr806   2.383       .  S
O803       Zr823   2.396       .  S
O803        H840   0.966       .  S
O804       Zr807   2.383       .  S
O804       Zr823   2.376       .  S
Zr805       O830   2.444       .  S
Zr805       O824   2.399       .  S
Zr805       O832   2.477       .  S
Zr805       O820   2.462       .  S
Zr805       O811   2.388       .  S
Zr805       O812   2.402       .  S
Zr805       O813   2.385       .  S
Zr805       O814   2.386       .  S
Zr806       O825   2.439       .  S
Zr806       O818   2.435       .  S
Zr806       O819   2.393       .  S
Zr806       O812   2.400       .  S
Zr806       O813   2.383       .  S
Zr807       O809   2.440       .  S
Zr807       O831   2.443       .  S
Zr807       O833   2.400       .  S
Zr807       O811   2.387       .  S
Zr807       O814   2.378       .  S
Zr808       O834   2.436       .  S
Zr808       O835   2.435       .  S
Zr808       O810   2.433       .  S
Zr808       O811   2.385       .  S
Zr808       O812   2.393       .  S
O809        H846   0.990       .  S
O810        H841   0.990       .  S
O810        H855   0.989       .  S
O812        H838   0.966       .  S
O813       Zr823   2.369       .  S
O814       Zr823   2.386       .  S
O814        H839   0.966       .  S
C815       C1408   1.464       .  S
C816       C1564   1.453       .  S
C817       C1156   1.456       .  S
O818        H854   0.990       .  S
O819        C821   1.277       .  A
O820        C821   1.290       .  A
C821       C1072   1.469       .  S
O822       Zr823   2.442       .  S
O822        H851   0.990       .  S
Zr823       O826   2.436       .  S
Zr823       O827   2.439       .  S
Zr823       O828   2.410       .  S
O824        C829   1.279       .  A
O825        H842   0.990       .  S
O825        H857   0.990       .  S
O826        H843   0.990       .  S
O827        H847   0.990       .  S
O827        H856   0.990       .  S
O828        C829   1.281       .  A
C829       C1273   1.461       .  S
O830        H849   0.990       .  S
O830        H853   0.990       .  S
O831        H845   0.990       .  S
O831        H852   0.989       .  S
O832        C836   1.292       .  A
O833        C836   1.279       .  A
O834        H844   0.990       .  S
O835        H848   0.990       .  S
C836       C1537   1.499       .  S
Zr859       O860   2.440       .  S
Zr859       O861   2.410       .  S
Zr859       O862   2.427       .  S
Zr859       O865   2.420       .  S
Zr859       O867   2.380       .  S
Zr859       O868   2.384       .  S
Zr859       O869   2.392       .  S
Zr859       O870   2.396       .  S
O860        H916   0.990       .  S
O860        H924   0.990       .  S
O861        C881   1.281       .  A
O862        C883   1.283       .  A
O863       Zr873   2.422       .  S
O863        C882   1.283       .  A
O864       Zr872   2.387       .  S
O864        C883   1.276       .  A
O865        C882   1.282       .  A
O866       Zr874   2.428       .  S
O866        C881   1.282       .  A
O867       Zr872   2.382       .  S
O867       Zr874   2.371       .  S
O868       Zr873   2.383       .  S
O868       Zr874   2.367       .  S
O868        H903   0.965       .  S
O869       Zr872   2.392       .  S
O869       Zr889   2.376       .  S
O869        H906   0.966       .  S
O870       Zr873   2.387       .  S
O870       Zr889   2.384       .  S
Zr871       O896   2.444       .  S
Zr871       O890   2.427       .  S
Zr871       O898   2.466       .  S
Zr871       O886   2.486       .  S
Zr871       O877   2.407       .  S
Zr871       O878   2.403       .  S
Zr871       O879   2.380       .  S
Zr871       O880   2.391       .  S
Zr872       O891   2.437       .  S
Zr872       O884   2.435       .  S
Zr872       O885   2.394       .  S
Zr872       O878   2.388       .  S
Zr872       O879   2.377       .  S
Zr873       O875   2.434       .  S
Zr873       O897   2.437       .  S
Zr873       O899   2.418       .  S
Zr873       O877   2.390       .  S
Zr873       O880   2.383       .  S
Zr874       O900   2.436       .  S
Zr874       O901   2.435       .  S
Zr874       O876   2.436       .  S
Zr874       O877   2.393       .  S
Zr874       O878   2.397       .  S
O875        H912   0.990       .  S
O876        H907   0.990       .  S
O876        H921   0.990       .  S
O878        H904   0.966       .  S
O879       Zr889   2.378       .  S
O880       Zr889   2.382       .  S
O880        H905   0.966       .  S
C881       C1456   1.484       .  S
C882       C1132   1.460       .  S
C883       C1624   1.453       .  S
O884        H920   0.990       .  S
O885        C887   1.277       .  A
O886        C887   1.294       .  A
C887       C1549   1.481       .  S
O888       Zr889   2.440       .  S
O888        H917   0.990       .  S
Zr889       O892   2.437       .  S
Zr889       O893   2.439       .  S
Zr889       O894   2.385       .  S
O890        C895   1.284       .  A
O891        H908   0.990       .  S
O891        H923   0.990       .  S
O892        H909   0.990       .  S
O893        H913   0.990       .  S
O893        H922   0.990       .  S
O894        C895   1.276       .  A
C895       C1240   1.453       .  S
O896        H915   0.990       .  S
O896        H919   0.990       .  S
O897        H911   0.990       .  S
O897        H918   0.990       .  S
O898        C902   1.291       .  A
O899        C902   1.282       .  A
O900        H910   0.990       .  S
O901        H914   0.990       .  S
C902       C1060   1.479       .  S
Zr925       O926   2.445       .  S
Zr925       O927   2.466       .  S
Zr925       O928   2.419       .  S
Zr925       O931   2.370       .  S
Zr925       O933   2.371       .  S
Zr925       O934   2.388       .  S
Zr925       O935   2.397       .  S
Zr925       O936   2.408       .  S
O926        H982   0.991       .  S
O926        H990   0.991       .  S
O927        C947   1.289       .  A
O928        C949   1.277       .  A
O929       Zr939   2.404       .  S
O929        C948   1.280       .  A
O930       Zr938   2.402       .  S
O930        C949   1.278       .  A
O931        C948   1.271       .  A
O932       Zr940   2.442       .  S
O932        C947   1.285       .  A
O933       Zr938   2.391       .  S
O933       Zr940   2.379       .  S
O934       Zr939   2.402       .  S
O934       Zr940   2.367       .  S
O934        H969   0.965       .  S
O935       Zr938   2.386       .  S
O935       Zr955   2.381       .  S
O935        H972   0.965       .  S
O936       Zr939   2.390       .  S
O936       Zr955   2.375       .  S
Zr937       O962   2.446       .  S
Zr937       O956   2.411       .  S
Zr937       O964   2.501       .  S
Zr937       O952   2.469       .  S
Zr937       O943   2.397       .  S
Zr937       O944   2.408       .  S
Zr937       O945   2.389       .  S
Zr937       O946   2.386       .  S
Zr938       O957   2.439       .  S
Zr938       O950   2.434       .  S
Zr938       O951   2.397       .  S
Zr938       O944   2.398       .  S
Zr938       O945   2.378       .  S
Zr939       O941   2.436       .  S
Zr939       O963   2.434       .  S
Zr939       O965   2.451       .  S
Zr939       O943   2.388       .  S
Zr939       O946   2.372       .  S
Zr940       O966   2.434       .  S
Zr940       O967   2.434       .  S
Zr940       O942   2.435       .  S
Zr940       O943   2.403       .  S
Zr940       O944   2.400       .  S
O941        H978   0.990       .  S
O942        H973   0.990       .  S
O942        H987   0.990       .  S
O944        H970   0.966       .  S
O945       Zr955   2.376       .  S
O946       Zr955   2.390       .  S
O946        H971   0.966       .  S
C947       C1144   1.502       .  S
C948       C1432   1.425       .  S
C949       C1345   1.449       .  S
O950        H986   0.990       .  S
O951        C953   1.278       .  A
O952        C953   1.292       .  A
C953       C1216   1.480       .  S
O954       Zr955   2.441       .  S
O954        H983   0.990       .  S
Zr955       O958   2.439       .  S
Zr955       O959   2.440       .  S
Zr955       O960   2.380       .  S
O956        C961   1.282       .  A
O957        H974   0.990       .  S
O957        H989   0.990       .  S
O958        H975   0.990       .  S
O959        H979   0.990       .  S
O959        H988   0.990       .  S
O960        C961   1.274       .  A
C961       C1492   1.439       .  S
O962        H981   0.990       .  S
O962        H985   0.990       .  S
O963        H977   0.990       .  S
O963        H984   0.990       .  S
O964        C968   1.297       .  A
O965        C968   1.287       .  A
O966        H976   0.990       .  S
O967        H980   0.990       .  S
C968       C1288   1.513       .  S
Zr991       O992   2.443       .  S
Zr991       O993   2.486       .  S
Zr991       O994   2.436       .  S
Zr991       O997   2.429       .  S
Zr991       O999   2.388       .  S
Zr991      O1000   2.382       .  S
Zr991      O1001   2.431       .  S
Zr991      O1002   2.414       .  S
O992       H1048   0.990       .  S
O992       H1056   0.990       .  S
O993       C1013   1.292       .  A
O994       C1015   1.280       .  A
O995      Zr1005   2.396       .  S
O995       C1014   1.277       .  A
O996      Zr1004   2.415       .  S
O996       C1015   1.279       .  A
O997       C1014   1.283       .  A
O998      Zr1006   2.455       .  S
O998       C1013   1.288       .  A
O999      Zr1004   2.405       .  S
O999      Zr1006   2.370       .  S
O1000     Zr1005   2.394       .  S
O1000     Zr1006   2.370       .  S
O1000      H1035   0.966       .  S
O1001     Zr1004   2.398       .  S
O1001     Zr1021   2.387       .  S
O1001      H1038   0.964       .  S
O1002     Zr1005   2.379       .  S
O1002     Zr1021   2.394       .  S
Zr1003     O1028   2.447       .  S
Zr1003     O1022   2.473       .  S
Zr1003     O1030   2.559       .  S
Zr1003     O1018   2.522       .  S
Zr1003     O1009   2.412       .  S
Zr1003     O1010   2.430       .  S
Zr1003     O1011   2.390       .  S
Zr1003     O1012   2.391       .  S
Zr1004     O1023   2.440       .  S
Zr1004     O1016   2.433       .  S
Zr1004     O1017   2.432       .  S
Zr1004     O1010   2.402       .  S
Zr1004     O1011   2.377       .  S
Zr1005     O1007   2.438       .  S
Zr1005     O1029   2.437       .  S
Zr1005     O1031   2.401       .  S
Zr1005     O1009   2.391       .  S
Zr1005     O1012   2.384       .  S
Zr1006     O1032   2.435       .  S
Zr1006     O1033   2.433       .  S
Zr1006     O1008   2.437       .  S
Zr1006     O1009   2.405       .  S
Zr1006     O1010   2.413       .  S
O1007      H1044   0.990       .  S
O1008      H1039   0.990       .  S
O1008      H1053   0.990       .  S
O1010      H1036   0.966       .  S
O1011     Zr1021   2.378       .  S
O1012     Zr1021   2.390       .  S
O1012      H1037   0.966       .  S
C1013      C1225   1.520       .  S
C1014      C1504   1.470       .  S
C1015      C1384   1.474       .  S
O1016      H1052   0.990       .  S
O1017      C1019   1.284       .  A
O1018      C1019   1.301       .  A
C1019      C1168   1.516       .  S
O1020     Zr1021   2.442       .  S
O1020      H1049   0.990       .  S
Zr1021     O1024   2.439       .  S
Zr1021     O1025   2.442       .  S
Zr1021     O1026   2.404       .  S
O1022      C1027   1.294       .  A
O1023      H1040   0.990       .  S
O1023      H1055   0.989       .  S
O1024      H1041   0.990       .  S
O1025      H1045   0.990       .  S
O1025      H1054   0.989       .  S
O1026      C1027   1.278       .  A
C1027      C1468   1.483       .  S
O1028      H1047   0.989       .  S
O1028      H1051   0.990       .  S
O1029      H1043   0.991       .  S
O1029      H1050   0.990       .  S
O1030      C1034   1.310       .  A
O1031      C1034   1.278       .  A
O1032      H1042   0.990       .  S
O1033      H1046   0.990       .  S
C1034      C1321   1.524       .  S
C1057      C1058   1.404       .  A
C1057      C1062   1.412       .  A
C1058      C1059   1.404       .  A
C1058      H1067   1.081       .  S
C1059      C1060   1.413       .  A
C1059      S1063   1.806       .  S
C1060      C1061   1.405       .  A
C1061      C1062   1.405       .  A
C1061      H1068   1.084       .  S
C1062      S1064   1.804       .  S
S1063      H1066   1.403       .  S
S1064      H1065   1.405       .  S
C1069      C1070   1.402       .  A
C1069      C1074   1.414       .  A
C1070      C1071   1.403       .  A
C1070      H1079   1.084       .  S
C1071      C1072   1.416       .  A
C1071      S1075   1.804       .  S
C1072      C1073   1.398       .  A
C1073      C1074   1.396       .  A
C1073      H1080   1.084       .  S
C1074      S1076   1.803       .  S
S1075      H1078   1.406       .  S
S1076      H1077   1.406       .  S
C1081      C1082   1.405       .  A
C1081      C1086   1.420       .  A
C1082      C1083   1.407       .  A
C1082      H1091   1.084       .  S
C1083      C1084   1.416       .  A
C1083      S1087   1.804       .  S
C1084      C1085   1.401       .  A
C1085      C1086   1.404       .  A
C1085      H1092   1.084       .  S
C1086      S1088   1.804       .  S
S1087      H1090   1.407       .  S
S1088      H1089   1.407       .  S
C1093      C1094   1.410       .  A
C1093      C1098   1.409       .  A
C1094      C1095   1.413       .  A
C1094      H1103   1.084       .  S
C1095      C1096   1.421       .  A
C1095      S1099   1.800       .  S
C1096      C1097   1.413       .  A
C1097      C1098   1.392       .  A
C1097      H1104   1.083       .  S
C1098      S1100   1.804       .  S
S1099      H1102   1.408       .  S
S1100      H1101   1.407       .  S
C1105      C1106   1.419       .  A
C1105      C1110   1.414       .  A
C1106      C1107   1.412       .  A
C1106      H1115   1.083       .  S
C1107      C1108   1.417       .  A
C1107      S1111   1.800       .  S
C1108      C1109   1.421       .  A
C1109      C1110   1.412       .  A
C1109      H1116   1.083       .  S
C1110      S1112   1.797       .  S
S1111      H1114   1.408       .  S
S1112      H1113   1.406       .  S
C1117      C1118   1.409       .  A
C1117      C1122   1.416       .  A
C1118      C1119   1.410       .  A
C1118      H1127   1.084       .  S
C1119      C1120   1.414       .  A
C1119      S1123   1.797       .  S
C1120      C1121   1.410       .  A
C1121      C1122   1.409       .  A
C1121      H1128   1.084       .  S
C1122      S1124   1.802       .  S
S1123      H1126   1.406       .  S
S1124      H1125   1.406       .  S
C1129      C1130   1.410       .  A
C1129      C1134   1.421       .  A
C1130      C1131   1.390       .  A
C1130      H1139   1.083       .  S
C1131      C1132   1.404       .  A
C1131      S1135   1.804       .  S
C1132      C1133   1.399       .  A
C1133      C1134   1.401       .  A
C1133      H1140   1.084       .  S
C1134      S1136   1.798       .  S
S1135      H1138   1.406       .  S
S1136      H1137   1.405       .  S
C1141      C1142   1.411       .  A
C1141      C1146   1.427       .  A
C1142      C1143   1.405       .  A
C1142      H1151   1.083       .  S
C1143      C1144   1.416       .  A
C1143      S1147   1.805       .  S
C1144      C1145   1.407       .  A
C1145      C1146   1.416       .  A
C1145      H1152   1.084       .  S
C1146      S1148   1.799       .  S
S1147      H1150   1.401       .  S
S1148      H1149   1.408       .  S
C1153      C1154   1.400       .  A
C1153      C1158   1.413       .  A
C1154      C1155   1.392       .  A
C1154      H1163   1.084       .  S
C1155      C1156   1.408       .  A
C1155      S1159   1.798       .  S
C1156      C1157   1.398       .  A
C1157      C1158   1.392       .  A
C1157      H1164   1.084       .  S
C1158      S1160   1.804       .  S
S1159      H1162   1.405       .  S
S1160      H1161   1.407       .  S
C1165      C1166   1.408       .  A
C1165      C1170   1.424       .  A
C1166      C1167   1.417       .  A
C1166      H1175   1.084       .  S
C1167      C1168   1.425       .  A
C1167      S1171   1.803       .  S
C1168      C1169   1.406       .  A
C1169      C1170   1.416       .  A
C1169      H1176   1.084       .  S
C1170      S1172   1.802       .  S
S1171      H1174   1.405       .  S
S1172      H1173   1.407       .  S
C1177      C1178   1.405       .  A
C1177      C1182   1.418       .  A
C1178      C1179   1.379       .  A
C1178      H1187   1.084       .  S
C1179      C1180   1.410       .  A
C1179      S1183   1.803       .  S
C1180      C1181   1.408       .  A
C1181      C1182   1.412       .  A
C1181      H1188   1.083       .  S
C1182      S1184   1.795       .  S
S1183      H1186   1.408       .  S
S1184      H1185   1.406       .  S
C1189      C1190   1.403       .  A
C1189      C1194   1.410       .  A
C1190      C1191   1.399       .  A
C1190      H1199   1.083       .  S
C1191      C1192   1.410       .  A
C1191      S1195   1.805       .  S
C1192      C1193   1.403       .  A
C1193      C1194   1.401       .  A
C1193      H1200   1.084       .  S
C1194      S1196   1.804       .  S
S1195      H1198   1.406       .  S
S1196      H1197   1.406       .  S
C1201      C1202   1.408       .  A
C1201      C1206   1.416       .  A
C1202      C1203   1.408       .  A
C1202      H1211   1.084       .  S
C1203      C1204   1.414       .  A
C1203      S1207   1.806       .  S
C1204      C1205   1.400       .  A
C1205      C1206   1.400       .  A
C1205      H1212   1.084       .  S
C1206      S1208   1.802       .  S
S1207      H1210   1.405       .  S
S1208      H1209   1.407       .  S
C1213      C1214   1.403       .  A
C1213      C1218   1.419       .  A
C1214      C1215   1.403       .  A
C1214      H1223   1.084       .  S
C1215      C1216   1.419       .  A
C1215      S1219   1.805       .  S
C1216      C1217   1.399       .  A
C1217      C1218   1.397       .  A
C1217      H1224   1.084       .  S
C1218      S1220   1.801       .  S
S1219      H1222   1.404       .  S
S1220      H1221   1.408       .  S
C1225      C1226   1.407       .  A
C1225      C1230   1.421       .  A
C1226      C1227   1.410       .  A
C1226      H1235   1.084       .  S
C1227      C1228   1.425       .  A
C1227      S1231   1.799       .  S
C1228      C1229   1.419       .  A
C1229      C1230   1.422       .  A
C1229      H1236   1.083       .  S
C1230      S1232   1.802       .  S
S1231      H1234   1.407       .  S
S1232      H1233   1.406       .  S
C1237      C1238   1.397       .  A
C1237      C1242   1.412       .  A
C1238      C1239   1.390       .  A
C1238      H1247   1.085       .  S
C1239      C1240   1.412       .  A
C1239      S1243   1.805       .  S
C1240      C1241   1.398       .  A
C1241      C1242   1.392       .  A
C1241      H1248   1.083       .  S
C1242      S1244   1.805       .  S
S1243      H1246   1.407       .  S
S1244      H1245   1.405       .  S
C1249      C1250   1.404       .  A
C1249      C1254   1.415       .  A
C1250      C1251   1.390       .  A
C1250      H1259   1.084       .  S
C1251      C1252   1.405       .  A
C1251      S1255   1.805       .  S
C1252      C1253   1.393       .  A
C1253      C1254   1.389       .  A
C1253      H1260   1.084       .  S
C1254      S1256   1.808       .  S
S1255      H1258   1.407       .  S
S1256      H1257   1.407       .  S
C1261      C1262   1.405       .  A
C1261      C1266   1.409       .  A
C1262      C1263   1.387       .  A
C1262      H1271   1.084       .  S
C1263      C1264   1.405       .  A
C1263      S1267   1.796       .  S
C1264      C1265   1.401       .  A
C1265      C1266   1.385       .  A
C1265      H1272   1.085       .  S
C1266      S1268   1.803       .  S
S1267      H1270   1.406       .  S
S1268      H1269   1.404       .  S
C1273      C1274   1.405       .  A
C1273      C1278   1.410       .  A
C1274      C1275   1.393       .  A
C1274      H1283   1.084       .  S
C1275      C1276   1.410       .  A
C1275      S1279   1.803       .  S
C1276      C1277   1.403       .  A
C1277      C1278   1.385       .  A
C1277      H1284   1.084       .  S
C1278      S1280   1.803       .  S
S1279      H1282   1.407       .  S
S1280      H1281   1.406       .  S
C1285      C1286   1.414       .  A
C1285      C1290   1.423       .  A
C1286      C1287   1.420       .  A
C1286      H1295   1.083       .  S
C1287      C1288   1.419       .  A
C1287      S1291   1.804       .  S
C1288      C1289   1.407       .  A
C1289      C1290   1.416       .  A
C1289      H1296   1.084       .  S
C1290      S1292   1.800       .  S
S1291      H1294   1.406       .  S
S1292      H1293   1.407       .  S
C1297      C1298   1.413       .  A
C1297      C1302   1.406       .  A
C1298      C1299   1.402       .  A
C1298      H1307   1.084       .  S
C1299      C1300   1.407       .  A
C1299      S1303   1.798       .  S
C1300      C1301   1.413       .  A
C1301      C1302   1.394       .  A
C1301      H1308   1.083       .  S
C1302      S1304   1.804       .  S
S1303      H1306   1.407       .  S
S1304      H1305   1.407       .  S
C1309      C1310   1.407       .  A
C1309      C1314   1.426       .  A
C1310      C1311   1.385       .  A
C1310      H1319   1.083       .  S
C1311      C1312   1.403       .  A
C1311      S1315   1.806       .  S
C1312      C1313   1.394       .  A
C1313      C1314   1.396       .  A
C1313      H1320   1.084       .  S
C1314      S1316   1.803       .  S
S1315      H1318   1.406       .  S
S1316      H1317   1.399       .  S
C1321      C1322   1.417       .  A
C1321      C1326   1.417       .  A
C1322      C1323   1.420       .  A
C1322      H1331   1.084       .  S
C1323      C1324   1.419       .  A
C1323      S1327   1.800       .  S
C1324      C1325   1.419       .  A
C1325      C1326   1.421       .  A
C1325      H1332   1.083       .  S
C1326      S1328   1.800       .  S
S1327      H1330   1.407       .  S
S1328      H1329   1.406       .  S
C1333      C1334   1.400       .  A
C1333      C1338   1.411       .  A
C1334      C1335   1.396       .  A
C1334      H1343   1.084       .  S
C1335      C1336   1.421       .  A
C1335      S1339   1.799       .  S
C1336      C1337   1.407       .  A
C1337      C1338   1.393       .  A
C1337      H1344   1.084       .  S
C1338      S1340   1.803       .  S
S1339      H1342   1.405       .  S
S1340      H1341   1.407       .  S
C1345      C1346   1.403       .  A
C1345      C1350   1.400       .  A
C1346      C1347   1.399       .  A
C1346      H1355   1.084       .  S
C1347      C1348   1.411       .  A
C1347      S1351   1.802       .  S
C1348      C1349   1.406       .  A
C1349      C1350   1.385       .  A
C1349      H1356   1.080       .  S
C1350      S1352   1.806       .  S
S1351      H1354   1.408       .  S
S1352      H1353   1.407       .  S
C1357      C1358   1.405       .  A
C1357      C1362   1.418       .  A
C1358      C1359   1.405       .  A
C1358      H1367   1.084       .  S
C1359      C1360   1.413       .  A
C1359      S1363   1.803       .  S
C1360      C1361   1.403       .  A
C1361      C1362   1.405       .  A
C1361      H1368   1.084       .  S
C1362      S1364   1.808       .  S
S1363      H1366   1.406       .  S
S1364      H1365   1.399       .  S
C1369      C1370   1.405       .  A
C1369      C1374   1.413       .  A
C1370      C1371   1.388       .  A
C1370      H1379   1.084       .  S
C1371      C1372   1.413       .  A
C1371      S1375   1.801       .  S
C1372      C1373   1.412       .  A
C1373      C1374   1.405       .  A
C1373      H1380   1.084       .  S
C1374      S1376   1.802       .  S
S1375      H1378   1.407       .  S
S1376      H1377   1.407       .  S
C1381      C1382   1.403       .  A
C1381      C1386   1.404       .  A
C1382      C1383   1.402       .  A
C1382      H1391   1.084       .  S
C1383      C1384   1.416       .  A
C1383      S1387   1.801       .  S
C1384      C1385   1.405       .  A
C1385      C1386   1.384       .  A
C1385      H1392   1.081       .  S
C1386      S1388   1.806       .  S
S1387      H1390   1.406       .  S
S1388      H1389   1.407       .  S
C1393      C1394   1.402       .  A
C1393      C1398   1.416       .  A
C1394      C1395   1.407       .  A
C1394      H1403   1.084       .  S
C1395      C1396   1.421       .  A
C1395      S1399   1.801       .  S
C1396      C1397   1.409       .  A
C1397      C1398   1.411       .  A
C1397      H1404   1.084       .  S
C1398      S1400   1.804       .  S
S1399      H1402   1.407       .  S
S1400      H1401   1.406       .  S
C1405      C1406   1.407       .  A
C1405      C1410   1.413       .  A
C1406      C1407   1.381       .  A
C1406      H1415   1.080       .  S
C1407      C1408   1.407       .  A
C1407      S1411   1.806       .  S
C1408      C1409   1.408       .  A
C1409      C1410   1.402       .  A
C1409      H1416   1.084       .  S
C1410      S1412   1.802       .  S
S1411      H1414   1.398       .  S
S1412      H1413   1.408       .  S
C1417      C1418   1.408       .  A
C1417      C1422   1.411       .  A
C1418      C1419   1.389       .  A
C1418      H1427   1.084       .  S
C1419      C1420   1.407       .  A
C1419      S1423   1.804       .  S
C1420      C1421   1.404       .  A
C1421      C1422   1.390       .  A
C1421      H1428   1.084       .  S
C1422      S1424   1.803       .  S
S1423      H1426   1.400       .  S
S1424      H1425   1.406       .  S
C1429      C1430   1.402       .  A
C1429      C1434   1.417       .  A
C1430      C1431   1.371       .  A
C1430      H1439   1.084       .  S
C1431      C1432   1.397       .  A
C1431      S1435   1.801       .  S
C1432      C1433   1.396       .  A
C1433      C1434   1.392       .  A
C1433      H1440   1.084       .  S
C1434      S1436   1.800       .  S
S1435      H1438   1.406       .  S
S1436      H1437   1.408       .  S
C1441      C1442   1.406       .  A
C1441      C1446   1.421       .  A
C1442      C1443   1.400       .  A
C1442      H1451   1.084       .  S
C1443      C1444   1.410       .  A
C1443      S1447   1.802       .  S
C1444      C1445   1.400       .  A
C1445      C1446   1.403       .  A
C1445      H1452   1.084       .  S
C1446      S1448   1.802       .  S
S1447      H1450   1.404       .  S
S1448      H1449   1.404       .  S
C1453      C1454   1.395       .  A
C1453      C1458   1.407       .  A
C1454      C1455   1.390       .  A
C1454      H1463   1.084       .  S
C1455      C1456   1.417       .  A
C1455      S1459   1.798       .  S
C1456      C1457   1.412       .  A
C1457      C1458   1.400       .  A
C1457      H1464   1.083       .  S
C1458      S1460   1.806       .  S
S1459      H1462   1.407       .  S
S1460      H1461   1.404       .  S
C1465      C1466   1.401       .  A
C1465      C1470   1.420       .  A
C1466      C1467   1.406       .  A
C1466      H1475   1.084       .  S
C1467      C1468   1.423       .  A
C1467      S1471   1.803       .  S
C1468      C1469   1.397       .  A
C1469      C1470   1.396       .  A
C1469      H1476   1.084       .  S
C1470      S1472   1.803       .  S
S1471      H1474   1.405       .  S
S1472      H1473   1.407       .  S
C1477      C1478   1.409       .  A
C1477      C1482   1.427       .  A
C1478      C1479   1.421       .  A
C1478      H1487   1.081       .  S
C1479      C1480   1.424       .  A
C1479      S1483   1.803       .  S
C1480      C1481   1.406       .  A
C1481      C1482   1.418       .  A
C1481      H1488   1.084       .  S
C1482      S1484   1.802       .  S
S1483      H1486   1.407       .  S
S1484      H1485   1.407       .  S
C1489      C1490   1.402       .  A
C1489      C1494   1.407       .  A
C1490      C1491   1.382       .  A
C1490      H1499   1.085       .  S
C1491      C1492   1.404       .  A
C1491      S1495   1.805       .  S
C1492      C1493   1.400       .  A
C1493      C1494   1.389       .  A
C1493      H1500   1.085       .  S
C1494      S1496   1.803       .  S
S1495      H1498   1.405       .  S
S1496      H1497   1.406       .  S
C1501      C1502   1.394       .  A
C1501      C1506   1.407       .  A
C1502      C1503   1.390       .  A
C1502      H1511   1.084       .  S
C1503      C1504   1.416       .  A
C1503      S1507   1.810       .  S
C1504      C1505   1.407       .  A
C1505      C1506   1.397       .  A
C1505      H1512   1.084       .  S
C1506      S1508   1.805       .  S
S1507      H1510   1.407       .  S
S1508      H1509   1.405       .  S
C1513      C1514   1.409       .  A
C1513      C1518   1.418       .  A
C1514      C1515   1.411       .  A
C1514      H1523   1.084       .  S
C1515      C1516   1.422       .  A
C1515      S1519   1.803       .  S
C1516      C1517   1.408       .  A
C1517      C1518   1.403       .  A
C1517      H1524   1.083       .  S
C1518      S1520   1.802       .  S
S1519      H1522   1.408       .  S
S1520      H1521   1.408       .  S
C1525      C1526   1.413       .  A
C1525      C1530   1.412       .  A
C1526      C1527   1.400       .  A
C1526      H1535   1.083       .  S
C1527      C1528   1.414       .  A
C1527      S1531   1.804       .  S
C1528      C1529   1.416       .  A
C1529      C1530   1.410       .  A
C1529      H1536   1.083       .  S
C1530      S1532   1.801       .  S
S1531      H1534   1.407       .  S
S1532      H1533   1.407       .  S
C1537      C1538   1.410       .  A
C1537      C1542   1.413       .  A
C1538      C1539   1.398       .  A
C1538      H1547   1.084       .  S
C1539      C1540   1.418       .  A
C1539      S1543   1.804       .  S
C1540      C1541   1.414       .  A
C1541      C1542   1.409       .  A
C1541      H1548   1.083       .  S
C1542      S1544   1.798       .  S
S1543      H1546   1.405       .  S
S1544      H1545   1.407       .  S
C1549      C1550   1.404       .  A
C1549      C1554   1.415       .  A
C1550      C1551   1.408       .  A
C1550      H1559   1.084       .  S
C1551      C1552   1.415       .  A
C1551      S1555   1.804       .  S
C1552      C1553   1.402       .  A
C1553      C1554   1.402       .  A
C1553      H1560   1.084       .  S
C1554      S1556   1.805       .  S
S1555      H1558   1.405       .  S
S1556      H1557   1.406       .  S
C1561      C1562   1.406       .  A
C1561      C1566   1.406       .  A
C1562      C1563   1.387       .  A
C1562      H1571   1.083       .  S
C1563      C1564   1.406       .  A
C1563      S1567   1.804       .  S
C1564      C1565   1.401       .  A
C1565      C1566   1.381       .  A
C1565      H1572   1.079       .  S
C1566      S1568   1.801       .  S
S1567      H1570   1.407       .  S
S1568      H1569   1.406       .  S
C1573      C1574   1.400       .  A
C1573      C1578   1.415       .  A
C1574      C1575   1.398       .  A
C1574      H1583   1.084       .  S
C1575      C1576   1.415       .  A
C1575      S1579   1.805       .  S
C1576      C1577   1.403       .  A
C1577      C1578   1.403       .  A
C1577      H1584   1.084       .  S
C1578      S1580   1.805       .  S
S1579      H1582   1.407       .  S
S1580      H1581   1.406       .  S
C1585      C1586   1.401       .  A
C1585      C1590   1.402       .  A
C1586      C1587   1.391       .  A
C1586      H1595   1.085       .  S
C1587      C1588   1.408       .  A
C1587      S1591   1.801       .  S
C1588      C1589   1.408       .  A
C1589      C1590   1.381       .  A
C1589      H1596   1.084       .  S
C1590      S1592   1.811       .  S
S1591      H1594   1.407       .  S
S1592      H1593   1.403       .  S
C1597      C1598   1.404       .  A
C1597      C1602   1.413       .  A
C1598      C1599   1.388       .  A
C1598      H1607   1.084       .  S
C1599      C1600   1.413       .  A
C1599      S1603   1.805       .  S
C1600      C1601   1.408       .  A
C1601      C1602   1.403       .  A
C1601      H1608   1.084       .  S
C1602      S1604   1.802       .  S
S1603      H1606   1.402       .  S
S1604      H1605   1.407       .  S
C1609      C1610   1.404       .  A
C1609      C1614   1.423       .  A
C1610      C1611   1.389       .  A
C1610      H1619   1.084       .  S
C1611      C1612   1.407       .  A
C1611      S1615   1.803       .  S
C1612      C1613   1.396       .  A
C1613      C1614   1.395       .  A
C1613      H1620   1.084       .  S
C1614      S1616   1.804       .  S
S1615      H1618   1.406       .  S
S1616      H1617   1.402       .  S
C1621      C1622   1.405       .  A
C1621      C1626   1.406       .  A
C1622      C1623   1.392       .  A
C1622      H1631   1.084       .  S
C1623      C1624   1.407       .  A
C1623      S1627   1.806       .  S
C1624      C1625   1.404       .  A
C1625      C1626   1.389       .  A
C1625      H1632   1.084       .  S
C1626      S1628   1.805       .  S
S1627      H1630   1.407       .  S
S1628      H1629   1.407       .  S
