geometry optimzed in LAMMPS
_audit_creation_date              2020-11-30 
_audit_creation_method            'lammps2cif' 
_symmetry_space_group_name_H-M    'P1' 
_symmetry_Int_Tables_number       1 
_symmetry_cell_setting            triclinic 
loop_ 
_symmetry_equiv_pos_as_xyz 
  x,y,z 
_cell_length_a                    36.78795637457751 
_cell_length_b                    36.77202797944794 
_cell_length_c                    27.95107393765741 
_cell_angle_alpha                 89.59240082185715 
_cell_angle_beta                  89.53435813070567 
_cell_angle_gamma                 120.176668201487 
loop_ 
_atom_site_label 
_atom_site_type_symbol 
_atom_site_fract_x 
_atom_site_fract_y 
_atom_site_fract_z 
_atom_site_charge 
C1          C  0.02778231  0.91848727  0.48574696     0.00060
C2          C  0.98499644  0.89676141  0.98928672     0.00060
In3        In  0.66803831  0.59685041  0.17670525     1.36870
C4          C  0.64051063  0.62899792  0.24290990     0.77070
O5          O  0.70976563  0.66407840  0.15389554    -0.61370
O6          O  0.67063758  0.61993919  0.10173974    -0.52280
C7          C  0.73121411  0.58054208  0.17840183     0.69740
O8          O  0.71999943  0.59201874  0.21540574    -0.47140
C9          C  0.60487232  0.51784053  0.16857964     0.74440
O10         O  0.66579164  0.61625511  0.25224158    -0.59000
O11         O  0.61455900  0.54478473  0.13556193    -0.49090
O12         O  0.62945491  0.62548096  0.19979440    -0.55430
C13         C  0.69815886  0.65736714  0.11086896     0.84620
O14         O  0.71202494  0.58042748  0.14137944    -0.57320
O15         O  0.62475707  0.53255085  0.20661790    -0.60620
In16       In  0.74802023  0.75103225  0.00820227     1.36870
C17         C  0.82698837  0.76697094  0.99378010     0.77070
O18         O  0.76199300  0.81412478  0.48021828    -0.61370
O19         O  0.75661698  0.80502818  0.05479241    -0.52280
C20         C  0.68657172  0.71940315  0.44507097     0.69740
O21         O  0.72393267  0.72964732  0.43443903    -0.47140
C22         C  0.71563103  0.69051944  0.07415736     0.74440
O23         O  0.80202927  0.75998688  0.45998643    -0.59000
O24         O  0.72819590  0.72847169  0.08361912    -0.49090
O25         O  0.81014625  0.76176357  0.03444980    -0.55430
C26         C  0.76583552  0.83058347  0.02044216     0.84620
O27         O  0.68037071  0.72493200  0.48821699    -0.57320
O28         O  0.71952026  0.68333630  0.03084620    -0.60620
In29       In  0.59357306  0.67544221  0.34454814     1.36870
C30         C  0.62473780  0.64619811  0.27939522     0.77070
O31         O  0.66030576  0.71585198  0.36659827    -0.61370
O32         O  0.61556915  0.67576965  0.41939279    -0.52280
C33         C  0.57732524  0.73836458  0.34076786     0.69740
O34         O  0.59686270  0.73199607  0.30751374    -0.47140
C35         C  0.51378262  0.61334666  0.34292622     0.74440
O36         O  0.61525337  0.67401552  0.26980246    -0.59000
O37         O  0.53528465  0.62142352  0.38050426    -0.49090
O38         O  0.61902942  0.63385106  0.32254159    -0.55430
C39         C  0.65324469  0.70314377  0.40953748     0.84620
O40         O  0.56920589  0.71456703  0.37664013    -0.57320
O41         O  0.53420945  0.63488359  0.30695366    -0.60620
C42         C  0.78485967  0.43466838  0.15263135     0.00060
C43         C  0.76347061  0.45606896  0.15496895     0.00060
C44         C  0.58075177  0.36308374  0.17036207     0.00060
C45         C  0.56023895  0.32031549  0.16952196     0.00060
C46         C  0.69557494  0.25133310  0.15675533     0.00060
C47         C  0.65277652  0.23072839  0.15620049     0.00060
C48         C  0.91814380  0.03080867  0.02274501     0.00060
C49         C  0.89685549  0.98797302  0.02527516     0.00060
In50       In  0.41257356  0.08717039  0.17168457     1.36870
C51         C  0.42603348  0.16521423  0.16835050     0.77070
O52         O  0.47553145  0.11520605  0.20513166    -0.61370
O53         O  0.46876152  0.08651825  0.13800235    -0.52280
C54         C  0.38270623  0.02796143  0.23845451     0.69740
O55         O  0.39032082  0.06486020  0.24677725    -0.47140
C56         C  0.35302474  0.05308508  0.10724269     0.74440
O57         O  0.41189680  0.14244023  0.20560673    -0.59000
O58         O  0.39121113  0.06587847  0.09745363    -0.49090
O59         O  0.42917723  0.14638738  0.13253139    -0.55430
C60         C  0.49311202  0.10689709  0.17167677     0.84620
O61         O  0.38962692  0.02135169  0.19603584    -0.57320
O62         O  0.34504397  0.05676724  0.15037825    -0.60620
In63       In  0.34326377  0.93473475  0.33996891     1.36870
C64         C  0.31465092  0.96591845  0.40520912     0.77070
O65         O  0.37945080  0.00266959  0.31814788    -0.61370
O66         O  0.34301690  0.95687610  0.26575520    -0.52280
C67         C  0.40897154  0.92246931  0.33798962     0.69740
O68         O  0.39478849  0.92797020  0.37685730    -0.47140
C69         C  0.28152572  0.85438309  0.33469240     0.74440
O70         O  0.34335807  0.95764581  0.41422073    -0.59000
O71         O  0.29077090  0.87991502  0.30018884    -0.49090
O72         O  0.30093461  0.95841449  0.36311983    -0.55430
C73         C  0.36768988  0.99510336  0.27520675     0.84620
O74         O  0.39217034  0.92751642  0.30154686    -0.57320
O75         O  0.30207616  0.87086624  0.37189469    -0.60620
In76       In  0.26330868  0.00956488  0.50354897     1.36870
C77         C  0.29777815  0.98249160  0.44078510     0.77070
O78         O  0.32900176  0.04977517  0.02790507    -0.61370
O79         O  0.28281219  0.00917446  0.07934799    -0.52280
C80         C  0.24647348  0.07203120  0.50130383     0.69740
O81         O  0.26791599  0.06737627  0.46887739    -0.47140
C82         C  0.18437264  0.94663165  0.49647911     0.74440
O83         O  0.28766751  0.00968927  0.43023868    -0.59000
O84         O  0.20526835  0.95261291  0.03423608    -0.49090
O85         O  0.29111894  0.96976528  0.48376581    -0.55430
C86         C  0.32072875  0.03666932  0.07064696     0.84620
O87         O  0.23650103  0.04656509  0.03593421    -0.57320
O88         O  0.20508811  0.97088819  0.46228233    -0.60620
In89       In  0.92837968  0.34232036  0.17092766     1.36870
C90         C  0.96257198  0.31577181  0.10717810     0.77070
O91         O  0.99490851  0.38271411  0.19331447    -0.61370
O92         O  0.94964777  0.34248300  0.24573558    -0.52280
C93         C  0.91190912  0.40513831  0.16894521     0.69740
O94         O  0.93117269  0.39907852  0.13511280    -0.47140
C95         C  0.84986478  0.27756710  0.16971525     0.74440
O96         O  0.95010557  0.34109571  0.09634000    -0.59000
O97         O  0.87251146  0.28621206  0.20638435    -0.49090
O98         O  0.95790182  0.30442038  0.15056006    -0.55430
C99         C  0.98745138  0.36962257  0.23610519     0.84620
O100        O  0.90370650  0.38073391  0.20424628    -0.57320
O101        O  0.86844728  0.30032734  0.13373925    -0.60620
In102      In  0.08017804  0.41684049  0.33622459     1.36870
C103        C  0.15986259  0.43449822  0.33456879     0.77070
O104        O  0.10269385  0.47950212  0.30084162    -0.61370
O105        O  0.07616503  0.47000356  0.37056445    -0.52280
C106        C  0.02032775  0.38533953  0.27194660     0.69740
O107        O  0.05826724  0.39757168  0.26146636    -0.47140
C108        C  0.05044175  0.35774747  0.40376172     0.74440
O109        O  0.13469275  0.41411317  0.30147237    -0.59000
O110        O  0.06168676  0.39561672  0.41232273    -0.49090
O111        O  0.14324631  0.44313659  0.36877860    -0.55430
C112        C  0.09474487  0.49545796  0.33619277     0.84620
O113        O  0.01289108  0.38836453  0.31542410    -0.57320
O114        O  0.05379243  0.34995222  0.36056829    -0.60620
In115      In  0.00851512  0.26668938  0.00909098     1.36870
C116        C  0.98011169  0.29968174  0.07189500     0.77070
O117        O  0.04801307  0.33343308  0.48378446    -0.61370
O118        O  0.00855843  0.28723329  0.43346707    -0.52280
C119        C  0.07120673  0.25014971  0.50933560     0.69740
O120        O  0.06326579  0.26583201  0.04521808    -0.47140
C121        C  0.94578461  0.18712456  0.01330152     0.74440
O122        O  0.00861626  0.29135109  0.08189098    -0.59000
O123        O  0.95285288  0.21017842  0.47668541    -0.49090
O124        O  0.96693014  0.29207026  0.02955421    -0.55430
C125        C  0.03516609  0.32532164  0.44129513     0.84620
O126        O  0.04935615  0.24638434  0.47331663    -0.57320
O127        O  0.96886021  0.20598591  0.04814802    -0.60620
C128        C  0.11925394  0.10170171  0.47368524     0.00060
C129        C  0.09849697  0.12317305  0.48238472     0.00060
C130        C  0.24613565  0.69506547  0.33803640     0.00060
C131        C  0.22557629  0.65248542  0.34568397     0.00060
C132        C  0.44942505  0.76729747  0.32224024     0.00060
C133        C  0.42884206  0.78915658  0.32781584     0.00060
C134        C  0.35893624  0.58449202  0.30859339     0.00060
C135        C  0.31591927  0.56284339  0.30797333     0.00060
C136        C  0.41371584  0.70139218  0.27439656    -0.09660
C137        C  0.42532142  0.72036359  0.31935586     0.06530
C138        C  0.41436614  0.69443294  0.36046095    -0.03430
C139        C  0.39374057  0.65084142  0.35585121    -0.07880
C140        C  0.38223215  0.63166708  0.31089261     0.05650
C141        C  0.39207728  0.65760398  0.26988606    -0.02910
Br142      Br  0.37707422  0.63567768  0.20681926    -0.02600
H143        H  0.42082060  0.72068163  0.24250223     0.09560
H144        H  0.38560344  0.63188949  0.38811585     0.07580
Br145      Br  0.42496063  0.71584985  0.42415983    -0.03030
C146        C  0.24576426  0.61126938  0.29270601    -0.09660
C147        C  0.24882353  0.62923210  0.33771861     0.06530
C148        C  0.27414284  0.62517836  0.37252548    -0.03430
C149        C  0.29423891  0.60242022  0.36215105    -0.07880
C150        C  0.29276040  0.58620473  0.31633584     0.05650
C151        C  0.26815394  0.59106365  0.28133289    -0.02910
Br152      Br  0.26474762  0.57336149  0.21668409    -0.02600
H153        H  0.22704996  0.61442054  0.26513530     0.09560
H154        H  0.31186300  0.59791011  0.39005055     0.07580
Br155      Br  0.28424051  0.65057354  0.43414950    -0.03030
C156        C  0.31580196  0.73994606  0.37436453    -0.09660
C157        C  0.29293955  0.71933835  0.33378617     0.06530
C158        C  0.31479684  0.72387585  0.29045478    -0.03430
C159        C  0.35871636  0.74694470  0.28937450    -0.07880
C160        C  0.38179683  0.76617557  0.33063417     0.05650
C161        C  0.35959510  0.76278021  0.37348948    -0.02910
Br162      Br  0.38565261  0.78613687  0.43326256    -0.02600
H163        H  0.29945595  0.73748023  0.40759424     0.09560
H164        H  0.37489787  0.74958769  0.25598642     0.07580
Br165      Br  0.28709701  0.70093401  0.23122030    -0.03030
C166        C  0.11603348  0.22964020  0.46463463    -0.09660
C167        C  0.10003633  0.23303740  0.50906407     0.06530
C168        C  0.10261381  0.21023430  0.54840419    -0.03430
C169        C  0.11341222  0.17919085  0.54046403    -0.07880
C170        C  0.11926917  0.16897903  0.49363327     0.05650
C171        C  0.12605668  0.19816797  0.45685902    -0.02910
Br172      Br  0.14375812  0.19380677  0.89388223    -0.02600
H173        H  0.11641373  0.24848155  0.93444352     0.09560
H174        H  0.11066820  0.15876995  0.57003530     0.07580
Br175      Br  0.08396502  0.21378134  0.61162908    -0.03030
C176        C  0.27392732  0.50343620  0.36269209    -0.09660
C177        C  0.28965618  0.51646821  0.31595183     0.06530
C178        C  0.26650166  0.48990353  0.27804502    -0.03430
C179        C  0.22464808  0.45834255  0.28574169    -0.07880
C180        C  0.20594690  0.45207647  0.33118878     0.05650
C181        C  0.23223333  0.47158288  0.37064060    -0.02910
Br182      Br  0.21214005  0.45938853  0.43568890    -0.02600
H183        H  0.29197477  0.52197212  0.39275974     0.09560
H184        H  0.20573512  0.44173222  0.25522785     0.07580
Br185      Br  0.28867722  0.49650587  0.21450606    -0.03030
C186        C  0.15808928  0.61058460  0.30434521    -0.09660
C187        C  0.17885763  0.62491304  0.34814170     0.06530
C188        C  0.15960961  0.59969931  0.38944756    -0.03430
C189        C  0.12586237  0.55883091  0.38507665    -0.07880
C190        C  0.11222827  0.54139690  0.33999108     0.05650
C191        C  0.12595394  0.56852793  0.29959263    -0.02910
Br192      Br  0.10541807  0.54868724  0.23667215    -0.02600
H193        H  0.17127662  0.62977847  0.27232473     0.09560
H194        H  0.11463429  0.53884244  0.41676043     0.07580
Br195      Br  0.18108547  0.61499759  0.45254815    -0.03030
C196        C  0.17938390  0.12054493  0.02611996    -0.09660
C197        C  0.16555998  0.12032973  0.47934337     0.06530
C198        C  0.19041469  0.11943023  0.44103458    -0.03430
C199        C  0.22201774  0.10984469  0.44971792    -0.07880
C200        C  0.22900482  0.10039009  0.49610461     0.05650
C201        C  0.21021870  0.10963804  0.03487536    -0.02910
Br202      Br  0.22217910  0.10377160  0.10026796    -0.02600
H203        H  0.16192622  0.12284340  0.05621028     0.09560
H204        H  0.23757731  0.10493023  0.41946175     0.07580
Br205      Br  0.18083261  0.12660728  0.37553199    -0.03030
C206        C  0.45915641  0.85811863  0.36869178    -0.09660
C207        C  0.44995461  0.83591622  0.32562006     0.06530
C208        C  0.44518534  0.85514756  0.28427025    -0.03430
C209        C  0.44024027  0.89012265  0.28851806    -0.07880
C210        C  0.43732967  0.90478567  0.33381318     0.05650
C211        C  0.45139425  0.89166648  0.37366632    -0.02910
Br212      Br  0.45595389  0.91473515  0.43613304    -0.02600
H213        H  0.46652656  0.84579664  0.40009913     0.09560
H214        H  0.43223886  0.90149190  0.25671828     0.07580
Br215      Br  0.43707526  0.83093914  0.22212028    -0.03030
C216        C  0.23003946  0.74213403  0.29199514    -0.09660
C217        C  0.22646619  0.72197628  0.33622117     0.06530
C218        C  0.22605648  0.74309667  0.37794489    -0.03430
C219        C  0.23872879  0.78580095  0.37567046    -0.07880
C220        C  0.25210595  0.80831814  0.33227463     0.05650
C221        C  0.24424055  0.78542367  0.28952720    -0.02910
Br222      Br  0.25891915  0.81188930  0.22741481    -0.02600
H223        H  0.22844706  0.72598508  0.25921287     0.09560
H224        H  0.24255172  0.80238878  0.40882538     0.07580
Br225      Br  0.21689610  0.71842405  0.44028720    -0.03030
C226        C  0.90792357  0.12022936  0.05966490    -0.09660
C227        C  0.91695306  0.14095370  0.01490701     0.06530
C228        C  0.90672035  0.11643345  0.47328678    -0.03430
C229        C  0.89644834  0.07435809  0.97711750    -0.07880
C230        C  0.89747654  0.05677580  0.02152458     0.05650
C231        C  0.89741231  0.07804015  0.06302730    -0.02910
Br232      Br  0.88675641  0.05181085  0.12492811    -0.02600
H233        H  0.91282361  0.13776610  0.09229232     0.09560
H234        H  0.89422665  0.05782336  0.44457799     0.07580
Br235      Br  0.91296829  0.13935177  0.40982340    -0.03030
C236        C  0.03723486  0.08377392  0.03787954    -0.09660
C237        C  0.05192588  0.09912043  0.99143464     0.06530
C238        C  0.02251070  0.09279076  0.45592798    -0.03430
C239        C  0.97952885  0.06905005  0.46651361    -0.07880
C240        C  0.96469058  0.05440193  0.01322281     0.05650
C241        C  0.99440925  0.06308728  0.04936992    -0.02910
Br242      Br  0.97987237  0.05088475  0.11555274    -0.02600
H243        H  0.05939650  0.08892861  0.06591464     0.09560
H244        H  0.95762399  0.06258889  0.43788901     0.07580
Br245      Br  0.03811601  0.11740922  0.39330985    -0.03030
C246        C  0.56004053  0.13131724  0.12599756    -0.09660
C247        C  0.53921243  0.12386617  0.17041432     0.06530
C248        C  0.56379215  0.14010253  0.21184406    -0.03430
C249        C  0.60668512  0.16956156  0.20717654    -0.07880
C250        C  0.62515707  0.18433108  0.16185366     0.05650
C251        C  0.60307969  0.16085168  0.12179513    -0.02910
Br252      Br  0.62982939  0.17038896  0.06034326    -0.02600
H253        H  0.54235949  0.11717924  0.09391248     0.09200
H254        H  0.62381152  0.18541441  0.23888420     0.07580
Br255      Br  0.54027868  0.12691004  0.27550241    -0.03030
C256        C  0.73957464  0.22342771  0.12532342    -0.09660
C257        C  0.72063236  0.23034988  0.16519694     0.06530
C258        C  0.73965339  0.23495331  0.21006368    -0.03430
C259        C  0.78133226  0.24393020  0.21228790    -0.07880
C260        C  0.80397250  0.24793457  0.17009465     0.05650
C261        C  0.78156520  0.23312940  0.12709583    -0.02910
Br262      Br  0.80798700  0.23043064  0.06876159    -0.02600
H263        H  0.72399176  0.21637339  0.09116530     0.09560
H264        H  0.79732848  0.25299324  0.24623501     0.07580
Br265      Br  0.71221837  0.23506375  0.26851379    -0.03030
C266        C  0.49092008  0.27546917  0.20886944    -0.09660
C267        C  0.51383497  0.29320500  0.16636614     0.06530
C268        C  0.49577274  0.27352778  0.12289114    -0.03430
C269        C  0.46122855  0.23267886  0.12358035    -0.07880
C270        C  0.44398805  0.21143014  0.16722780     0.05650
C271        C  0.45552291  0.23509026  0.20953285    -0.02910
Br272      Br  0.42792340  0.21273734  0.27003671    -0.02600
H273        H  0.50309090  0.29061153  0.24258182     0.09560
H274        H  0.45107015  0.21599711  0.09010334     0.07580
Br275      Br  0.51979569  0.29876267  0.06191732    -0.03030
C276        C  0.59978231  0.29359759  0.12268203    -0.09660
C277        C  0.58463144  0.29786545  0.16722608     0.06530
C278        C  0.59306326  0.28090543  0.20814541    -0.03430
C279        C  0.61611928  0.26031267  0.20369479    -0.07880
C280        C  0.63025338  0.25506775  0.15879726     0.05650
C281        C  0.62206035  0.27236739  0.11804284    -0.02910
Br282      Br  0.63944752  0.26819429  0.05479581    -0.02600
H283        H  0.59453781  0.30704515  0.09094370     0.09560
H284        H  0.62306603  0.24836399  0.23571158     0.07580
Br285      Br  0.57421951  0.28456640  0.27099730    -0.03030
C286        C  0.84818522  0.45588463  0.19977194    -0.09660
C287        C  0.83143259  0.45456137  0.15447819     0.06530
C288        C  0.85377919  0.45280081  0.11400954    -0.03430
C289        C  0.88535493  0.44262663  0.11969164    -0.07880
C290        C  0.89499196  0.43405073  0.16525077     0.05650
C291        C  0.87918896  0.44480373  0.20562976    -0.02910
Br292      Br  0.89530494  0.44067604  0.26969542    -0.02600
H293        H  0.83311684  0.45959246  0.23126365     0.09560
H294        H  0.89857446  0.43645865  0.08811734     0.07580
Br295      Br  0.83891409  0.45754063  0.04975852    -0.03030
C296        C  0.69659026  0.42778219  0.20220964    -0.09660
C297        C  0.71640708  0.43236565  0.15765755     0.06530
C298        C  0.69113522  0.41450378  0.11722720    -0.03430
C299        C  0.64732151  0.39337543  0.12204278    -0.07880
C300        C  0.62770465  0.38749707  0.16704173     0.05650
C301        C  0.65299279  0.40494622  0.20741724    -0.02910
Br302      Br  0.63098849  0.39806888  0.27105760    -0.02600
H303        H  0.71502209  0.44099740  0.23389136     0.09560
H304        H  0.62839151  0.38070226  0.09045280     0.07580
Br305      Br  0.71400589  0.41714462  0.05473921    -0.03030
C306        C  0.72230951  0.32053762  0.19680349    -0.09660
C307        C  0.71993830  0.29843759  0.15512250     0.06530
C308        C  0.74026162  0.32158611  0.11312678    -0.03430
C309        C  0.75955270  0.36540026  0.11284381    -0.07880
C310        C  0.76164840  0.38752007  0.15432336     0.05650
C311        C  0.74411753  0.36448560  0.19721504    -0.02910
Br312      Br  0.75108256  0.39051825  0.25822926    -0.02600
H313        H  0.70743142  0.30356393  0.22953045     0.09560
H314        H  0.77318293  0.38208599  0.07979523     0.07580
Br315      Br  0.74398009  0.29648934  0.05478714    -0.03030
C316        C  0.45132800  0.57150928  0.29410973    -0.09660
C317        C  0.46775183  0.58448582  0.33994341     0.06530
C318        C  0.43966214  0.57880432  0.37778118    -0.03430
C319        C  0.39788052  0.56709313  0.36738388    -0.07880
C320        C  0.38498890  0.56483056  0.31963844     0.05650
C321        C  0.41064410  0.56244037  0.28356408    -0.02910
Br322      Br  0.39494869  0.55269983  0.21802392    -0.02600
H323        H  0.47185064  0.57352695  0.26491218     0.09560
H324        H  0.37775181  0.56670730  0.39609882     0.07580
Br325      Br  0.45787489  0.59420102  0.44237527    -0.03030
C326        C  0.54962621  0.77387159  0.28983729    -0.09660
C327        C  0.55989451  0.76676091  0.33580497     0.06530
C328        C  0.54425934  0.77839961  0.37562818    -0.03430
C329        C  0.51329901  0.78944506  0.36902926    -0.07880
C330        C  0.49593220  0.78648784  0.32376130     0.05650
C331        C  0.51773632  0.78353541  0.28360228    -0.02910
Br332      Br  0.50225459  0.78745735  0.21946843    -0.02600
H333        H  0.56267173  0.76704102  0.25859944     0.09560
H334        H  0.49867233  0.79432599  0.40017511     0.07580
Br335      Br  0.56027585  0.77527039  0.44006246    -0.03030
C336        C  0.83144067  0.93994472  0.06966808    -0.09660
C337        C  0.85015228  0.96123507  0.02659445     0.06530
C338        C  0.82900874  0.94329690  0.48378343    -0.03430
C339        C  0.79647363  0.90144733  0.48366435    -0.07880
C340        C  0.78475162  0.87678222  0.02567817     0.05650
C341        C  0.79977665  0.89743499  0.06972876    -0.02910
Br342      Br  0.78314515  0.86880182  0.13058624    -0.02600
H343        H  0.84523547  0.95451293  0.10328917     0.09560
H344        H  0.78367722  0.88700553  0.44958514     0.07580
Br345      Br  0.84680996  0.97187055  0.42322173    -0.03030
C346        C  0.56017289  0.44711914  0.20436710    -0.09660
C347        C  0.57687225  0.47199246  0.16282793     0.06530
C348        C  0.57589885  0.45191486  0.11958944    -0.03430
C349        C  0.56699783  0.41016333  0.12093819    -0.07880
C350        C  0.55980327  0.38850128  0.16474953     0.05650
C351        C  0.55077099  0.40524954  0.20530339    -0.02910
Br352      Br  0.52918188  0.37414295  0.26390533    -0.02600
H353        H  0.55822257  0.46133120  0.23740200     0.09560
H354        H  0.57209301  0.39700104  0.08876910     0.07580
Br355      Br  0.59394932  0.48122327  0.05925733    -0.03030
C356        C  0.78097739  0.51530632  0.20919988    -0.09660
C357        C  0.78338681  0.50238216  0.16253982     0.06530
C358        C  0.78504742  0.52832661  0.12425742    -0.03430
C359        C  0.77425750  0.55916874  0.13184997    -0.07880
C360        C  0.76091234  0.56431900  0.17712063     0.05650
C361        C  0.76816319  0.54499776  0.21688255    -0.02910
Br362      Br  0.75475749  0.55223523  0.28129142    -0.02600
H363        H  0.78212994  0.49743742  0.23954190     0.09560
H364        H  0.77155945  0.57569997  0.10105272     0.07580
Br365      Br  0.79603488  0.52011457  0.05967034    -0.03030
C366        C  0.11992656  0.91265503  0.44757164    -0.09660
C367        C  0.13833907  0.91775294  0.49282229     0.06530
C368        C  0.11165593  0.90384590  0.53355013    -0.03430
C369        C  0.06992690  0.89434987  0.52920588    -0.07880
C370        C  0.05448268  0.89874618  0.48511714     0.05650
C371        C  0.07799759  0.90258075  0.44357691    -0.02910
Br372      Br  0.05559582  0.89924138  0.38105315    -0.02600
H373        H  0.13912884  0.92058642  0.41536133     0.09560
H374        H  0.05181646  0.88961912  0.06154432     0.07580
Br375      Br  0.13112725  0.90333180  0.59691791    -0.03030
C376        C  0.05732008  0.98573291  0.43911740    -0.09660
C377        C  0.05111441  0.96556316  0.48363781     0.06530
C378        C  0.06665315  0.99038709  0.02478191    -0.03430
C379        C  0.08911074  0.03428844  0.52031335    -0.07880
C380        C  0.09511003  0.05450863  0.47561269     0.05650
C381        C  0.07783624  0.02950696  0.43488436    -0.02910
Br382      Br  0.07898136  0.05200835  0.37274602    -0.02600
H383        H  0.04543077  0.96734188  0.40719780     0.09560
H384        H  0.10093554  0.05273657  0.05235009     0.07580
Br385      Br  0.05717459  0.96687532  0.08812104    -0.03030
C386        C  0.95148385  0.92418218  0.04440392    -0.09660
C387        C  0.96197025  0.91994377  0.99733385     0.06530
C388        C  0.95048528  0.93769958  0.45969497    -0.03430
C389        C  0.93091192  0.96087828  0.47011166    -0.07880
C390        C  0.91984567  0.96464834  0.01724637     0.05650
C391        C  0.92965662  0.94514539  0.05463926    -0.02910
Br392      Br  0.91440490  0.94480735  0.12039545    -0.02600
H393        H  0.96009285  0.91087745  0.07369759     0.09560
H394        H  0.92373362  0.97557856  0.44094708     0.07580
Br395      Br  0.95853327  0.93019595  0.39345834    -0.03030
C396        C  0.89736143  0.79451500  0.02911794    -0.09660
C397        C  0.87316948  0.78537768  0.98759320     0.06530
C398        C  0.89442245  0.80271804  0.44354025    -0.03430
C399        C  0.93690996  0.83435197  0.44359351    -0.07880
C400        C  0.95800203  0.85018521  0.98680225     0.05650
C401        C  0.93944404  0.82663631  0.02902055    -0.02910
Br402      Br  0.96781916  0.84016953  0.08896789    -0.02600
H403        H  0.88247756  0.77992611  0.06299859     0.09560
H404        H  0.95158399  0.85038725  0.41028806     0.07580
Br405      Br  0.86657599  0.78915796  0.38301063    -0.03030
C406        C  0.02771731  0.91844385  0.98577204     0.00060
C407        C  0.98506168  0.89680604  0.48926306     0.00060
In408      In  0.66805425  0.59686735  0.67668448     1.36870
C409        C  0.64051198  0.62900595  0.74288361     0.77070
O410        O  0.70978555  0.66409775  0.65388302    -0.61370
O411        O  0.67066789  0.61996272  0.60171838    -0.52280
C412        C  0.73122710  0.58055501  0.67838862     0.69740
O413        O  0.72001483  0.59203769  0.71538980    -0.47140
C414        C  0.60489060  0.51785630  0.66855810     0.74440
O415        O  0.66579777  0.61626982  0.75221929    -0.59000
O416        O  0.61457729  0.54479981  0.63553921    -0.49090
O417        O  0.62946032  0.62548848  0.69976637    -0.55430
C418        C  0.69818794  0.65738984  0.61085323     0.84620
O419        O  0.71203701  0.58043637  0.64136523    -0.57320
O420        O  0.62477447  0.53256781  0.70659665    -0.60620
In421      In  0.74808244  0.75105919  0.50819236     1.36870
C422        C  0.82704920  0.76700174  0.49372304     0.77070
O423        O  0.76203042  0.81411646  0.98019336    -0.61370
O424        O  0.75679845  0.80507475  0.55482278    -0.52280
C425        C  0.68652277  0.71939001  0.94506393     0.69740
O426        O  0.72389227  0.72966772  0.93443266    -0.47140
C427        C  0.71567042  0.69054422  0.57414366     0.74440
O428        O  0.80194452  0.75983642  0.96003677    -0.59000
O429        O  0.72822757  0.72849573  0.58360320    -0.49090
O430        O  0.81018206  0.76167110  0.53439578    -0.55430
C431        C  0.76590930  0.83061123  0.52047458     0.84620
O432        O  0.68030624  0.72488188  0.98821763    -0.57320
O433        O  0.71957835  0.68336341  0.53083673    -0.60620
In434      In  0.59354603  0.67542842  0.84451685     1.36870
C435        C  0.62472889  0.64619850  0.77936682     0.77070
O436        O  0.66027066  0.71584899  0.86658607    -0.61370
O437        O  0.61552893  0.67574620  0.91936511    -0.52280
C438        C  0.57729538  0.73834886  0.84074087     0.69740
O439        O  0.59683522  0.73198385  0.80748655    -0.47140
C440        C  0.51375803  0.61332930  0.84289126     0.74440
O441        O  0.61523353  0.67400757  0.76977210    -0.59000
O442        O  0.53526076  0.62140416  0.88046821    -0.49090
O443        O  0.61902166  0.63385232  0.82251334    -0.55430
C444        C  0.65320320  0.70313136  0.90952189     0.84620
O445        O  0.56917228  0.71454686  0.87660950    -0.57320
O446        O  0.53418362  0.63486897  0.80691951    -0.60620
C447        C  0.78487273  0.43467919  0.65262802     0.00060
C448        C  0.76348389  0.45608009  0.65496565     0.00060
C449        C  0.58076498  0.36309594  0.67035651     0.00060
C450        C  0.56025089  0.32032729  0.66952559     0.00060
C451        C  0.69558623  0.25134406  0.65675708     0.00060
C452        C  0.65278776  0.23073854  0.65620739     0.00060
C453        C  0.91820851  0.03084940  0.52275840     0.00060
C454        C  0.89692533  0.98801390  0.52528588     0.00060
In455      In  0.41259303  0.08717786  0.67171055     1.36870
C456        C  0.42605347  0.16522251  0.66837328     0.77070
O457        O  0.47555017  0.11521108  0.70516010    -0.61370
O458        O  0.46877836  0.08651888  0.63803345    -0.52280
C459        C  0.38270881  0.02796498  0.73847765     0.69740
O460        O  0.39033062  0.06486589  0.74680159    -0.47140
C461        C  0.35305723  0.05310023  0.60725442     0.74440
O462        O  0.41191729  0.14244963  0.70563036    -0.59000
O463        O  0.39124476  0.06589160  0.59747523    -0.49090
O464        O  0.42919789  0.14639472  0.63255567    -0.55430
C465        C  0.49312962  0.10689959  0.67170619     0.84620
O466        O  0.38963255  0.02135591  0.69606007    -0.57320
O467        O  0.34506838  0.05678009  0.65038767    -0.60620
In468      In  0.34323756  0.93472578  0.83998087     1.36870
C469        C  0.31460884  0.96589591  0.90521877     0.77070
O470        O  0.37943632  0.00266317  0.81817029    -0.61370
O471        O  0.34300299  0.95687826  0.76576963    -0.52280
C472        C  0.40894320  0.92245800  0.83799587     0.69740
O473        O  0.39477348  0.92797592  0.87686418    -0.47140
C474        C  0.28150271  0.85437392  0.83470420     0.74440
O475        O  0.34331450  0.95762228  0.91423591    -0.59000
O476        O  0.29073779  0.87990857  0.80020505    -0.49090
O477        O  0.30090291  0.95840088  0.86312480    -0.55430
C478        C  0.36768085  0.99510324  0.77522683     0.84620
O479        O  0.39212839  0.92748760  0.80155454    -0.57320
O480        O  0.30206225  0.87085412  0.87190222    -0.60620
In481      In  0.26325609  0.00953328  0.00355733     1.36870
C482        C  0.29772776  0.98246214  0.94079336     0.77070
O483        O  0.32905119  0.04979781  0.52790993    -0.61370
O484        O  0.28284995  0.00919747  0.57934334    -0.52280
C485        C  0.24641791  0.07199716  0.00130736     0.69740
O486        O  0.26785474  0.06733737  0.96887792    -0.47140
C487        C  0.18431713  0.94659984  0.99650083     0.74440
O488        O  0.28761306  0.00965667  0.93024637    -0.59000
O489        O  0.20532020  0.95263956  0.53421629    -0.49090
O490        O  0.29106753  0.96973462  0.98377371    -0.55430
C491        C  0.32076892  0.03668958  0.57065056     0.84620
O492        O  0.23654841  0.04659230  0.53592492    -0.57320
O493        O  0.20503078  0.97084979  0.96229861    -0.60620
In494      In  0.92838926  0.34232444  0.67091914     1.36870
C495        C  0.96259613  0.31578793  0.60717242     0.77070
O496        O  0.99491382  0.38271833  0.69331835    -0.61370
O497        O  0.94964662  0.34247978  0.74573009    -0.52280
C498        C  0.91191856  0.40514271  0.66893781     0.69740
O499        O  0.93118169  0.39908284  0.63510504    -0.47140
C500        C  0.84987540  0.27756952  0.66970467     0.74440
O501        O  0.95012290  0.34110605  0.59633298    -0.59000
O502        O  0.87252253  0.28621383  0.70637305    -0.49090
O503        O  0.95792371  0.30443474  0.65055378    -0.55430
C504        C  0.98745095  0.36962152  0.73610699     0.84620
O505        O  0.90371595  0.38073795  0.70423837    -0.57320
O506        O  0.86845767  0.30032987  0.63372861    -0.60620
In507      In  0.08016434  0.41682666  0.83624010     1.36870
C508        C  0.15984792  0.43448221  0.83457891     0.77070
O509        O  0.10267840  0.47948855  0.80085866    -0.61370
O510        O  0.07615375  0.46999032  0.87058342    -0.52280
C511        C  0.02032219  0.38533425  0.77195371     0.69740
O512        O  0.05826219  0.39756454  0.76147914    -0.47140
C513        C  0.05041669  0.35772750  0.90377140     0.74440
O514        O  0.13467548  0.41409580  0.80148537    -0.59000
O515        O  0.06166937  0.39559785  0.91233680    -0.49090
O516        O  0.14323413  0.44312082  0.86879120    -0.55430
C517        C  0.09473099  0.49544446  0.83621078     0.84620
O518        O  0.01288046  0.38835676  0.81543022    -0.57320
O519        O  0.05376701  0.34993470  0.86057704    -0.60620
In520      In  0.00855984  0.26671999  0.50909127     1.36870
C521        C  0.98014504  0.29970536  0.57189123     0.77070
O522        O  0.04797907  0.33340322  0.98379115    -0.61370
O523        O  0.00851963  0.28721195  0.93346897    -0.52280
C524        C  0.07115610  0.25011167  0.00933393     0.69740
O525        O  0.06331676  0.26587271  0.54521760    -0.47140
C526        C  0.94583319  0.18715456  0.51330843     0.74440
O527        O  0.00865430  0.29138209  0.58188991    -0.59000
O528        O  0.95280640  0.21015139  0.97668065    -0.49090
O529        O  0.96696651  0.29209240  0.52954942    -0.55430
C530        C  0.03513320  0.32529781  0.94130106     0.84620
O531        O  0.04930890  0.24635258  0.97331379    -0.57320
O532        O  0.96891019  0.20601864  0.54815300    -0.60620
C533        C  0.11919037  0.10165517  0.97368136     0.00060
C534        C  0.09843308  0.12312631  0.98237819     0.00060
C535        C  0.24611320  0.69505714  0.83804207     0.00060
C536        C  0.22555557  0.65247710  0.84569007     0.00060
C537        C  0.44940202  0.76729098  0.82223099     0.00060
C538        C  0.42881930  0.78914960  0.82781468     0.00060
C539        C  0.35891443  0.58448583  0.80857388     0.00060
C540        C  0.31589753  0.56283768  0.80795890     0.00060
C541        C  0.41369304  0.70138758  0.77438376    -0.09660
C542        C  0.42529854  0.72035710  0.81934402     0.06530
C543        C  0.41434473  0.69442464  0.86044746    -0.03430
C544        C  0.39371986  0.65083331  0.85583514    -0.07880
C545        C  0.38221112  0.63166086  0.81087557     0.05650
C546        C  0.39205601  0.65759959  0.76987064    -0.02910
Br547      Br  0.37705583  0.63567620  0.70680240    -0.02600
H548        H  0.42079700  0.72067833  0.74249068     0.09560
H549        H  0.38558374  0.63187996  0.88809859     0.07580
Br550      Br  0.42494103  0.71583883  0.92414754    -0.03030
C551        C  0.24574444  0.61126678  0.79270389    -0.09660
C552        C  0.24880366  0.62922538  0.83771910     0.06530
C553        C  0.27412356  0.62516920  0.87252312    -0.03430
C554        C  0.29421902  0.60241138  0.86214392    -0.07880
C555        C  0.29273967  0.58619914  0.81632661     0.05650
C556        C  0.26813417  0.59106213  0.78132592    -0.02910
Br557      Br  0.26472998  0.57336764  0.71667411    -0.02600
H558        H  0.22703006  0.61442034  0.76513515     0.09560
H559        H  0.31184367  0.59789940  0.89004120     0.07580
Br560      Br  0.28422394  0.65056160  0.93414886    -0.03030
C561        C  0.31578043  0.73993626  0.87436861    -0.09660
C562        C  0.29291699  0.71933107  0.83378982     0.06530
C563        C  0.31477322  0.72387108  0.79045689    -0.03430
C564        C  0.35869268  0.74693980  0.78937539    -0.07880
C565        C  0.38177420  0.76616830  0.83063520     0.05650
C566        C  0.35957357  0.76277053  0.87349222    -0.02910
Br567      Br  0.38563246  0.78612360  0.93326580    -0.02600
H568        H  0.29943521  0.73746827  0.90759963     0.09560
H569        H  0.37487340  0.74958451  0.75598617     0.07580
Br570      Br  0.28707238  0.70093273  0.73122197    -0.03030
C571        C  0.11597723  0.22959721  0.96463078    -0.09660
C572        C  0.09998198  0.23299540  0.00906102     0.06530
C573        C  0.10255683  0.21018980  0.04840014    -0.03430
C574        C  0.11335163  0.17914414  0.04045829    -0.07880
C575        C  0.11920602  0.16893193  0.99362686     0.05650
C576        C  0.12599496  0.19812157  0.95685306    -0.02910
Br577      Br  0.14382520  0.19385599  0.39389002    -0.02600
H578        H  0.11646824  0.24852290  0.43444655     0.09560
H579        H  0.11060708  0.15872254  0.07002899     0.07580
Br580      Br  0.08390837  0.21373600  0.11162560    -0.03030
C581        C  0.27391430  0.50343100  0.86268259    -0.09660
C582        C  0.28963559  0.51646277  0.81593973     0.06530
C583        C  0.26647757  0.48989605  0.77803597    -0.03430
C584        C  0.22462717  0.45833047  0.78574027    -0.07880
C585        C  0.20593216  0.45206327  0.83119115     0.05650
C586        C  0.23222320  0.47157372  0.87063829    -0.02910
Br587      Br  0.21213906  0.45937945  0.93568984    -0.02600
H588        H  0.29196491  0.52196888  0.89274752     0.09560
H589        H  0.20571071  0.44171776  0.75522949     0.07580
Br590      Br  0.28864296  0.49650111  0.71449151    -0.03030
C591        C  0.15806612  0.61057122  0.80435812    -0.09660
C592        C  0.17883722  0.62490271  0.84815263     0.06530
C593        C  0.15959355  0.59968942  0.88946009    -0.03430
C594        C  0.12584879  0.55881925  0.88509205    -0.07880
C595        C  0.11221260  0.54138327  0.84000778     0.05650
C596        C  0.12593345  0.56851306  0.79960823    -0.02910
Br597      Br  0.10539469  0.54866928  0.73668942    -0.02600
H598        H  0.17124972  0.62976450  0.77233656     0.09560
H599        H  0.11462427  0.53883164  0.91677670     0.07580
Br600      Br  0.18107221  0.61499118  0.95255909    -0.03030
C601        C  0.17944744  0.12058713  0.52612224    -0.09660
C602        C  0.16549633  0.12028461  0.97934050     0.06530
C603        C  0.19035253  0.11938644  0.94103278    -0.03430
C604        C  0.22195796  0.10980485  0.94971811    -0.07880
C605        C  0.22894595  0.10035299  0.99610580     0.05650
C606        C  0.21027948  0.10967586  0.53487553    -0.02910
Br607      Br  0.22223898  0.10380458  0.60026700    -0.02600
H608        H  0.16199081  0.12288590  0.55621350     0.09560
H609        H  0.23751918  0.10489147  0.91946285     0.07580
Br610      Br  0.18077055  0.12656146  0.87552949    -0.03030
C611        C  0.45913197  0.85811000  0.86869464    -0.09660
C612        C  0.44993138  0.83590937  0.82562162     0.06530
C613        C  0.44516233  0.85514225  0.78427306    -0.03430
C614        C  0.44021665  0.89011674  0.78852310    -0.07880
C615        C  0.43730365  0.90477689  0.83381913     0.05650
C616        C  0.45136828  0.89165677  0.87367146    -0.02910
Br617      Br  0.45592516  0.91472143  0.93614000    -0.02600
H618        H  0.46650252  0.84578729  0.90010104     0.09560
H619        H  0.43221617  0.90148752  0.75672387     0.07580
Br620      Br  0.43705169  0.83093617  0.72212179    -0.03030
C621        C  0.23001444  0.74212565  0.79200456    -0.09660
C622        C  0.22644273  0.72196721  0.83622981     0.06530
C623        C  0.22603473  0.74308732  0.87795461    -0.03430
C624        C  0.23870709  0.78579160  0.87568142    -0.07880
C625        C  0.25208276  0.80830925  0.83228588     0.05650
C626        C  0.24421638  0.78541557  0.78953790    -0.02910
Br627      Br  0.25889689  0.81188329  0.72742670    -0.02600
H628        H  0.22842070  0.72597711  0.75922155     0.09560
H629        H  0.24253133  0.80237923  0.90883682     0.07580
Br630      Br  0.21687694  0.71841466  0.94029650    -0.03030
C631        C  0.90797848  0.12026293  0.55967783    -0.09660
C632        C  0.91700237  0.14098402  0.51491837     0.06530
C633        C  0.90667458  0.11640574  0.97327353    -0.03430
C634        C  0.89649835  0.07438724  0.47713300    -0.07880
C635        C  0.89753443  0.05680986  0.52154027     0.05650
C636        C  0.89747152  0.07807526  0.56304245    -0.02910
Br637      Br  0.88682430  0.05185007  0.62494487    -0.02600
H638        H  0.91288059  0.13780150  0.59230419     0.09560
H639        H  0.89417821  0.05779588  0.94456165     0.07580
Br640      Br  0.91293283  0.13932899  0.90981118    -0.03030
C641        C  0.03730067  0.08381671  0.53788677    -0.09660
C642        C  0.05199007  0.09916692  0.49144264     0.06530
C643        C  0.02244754  0.09273825  0.95591635    -0.03430
C644        C  0.97946546  0.06899787  0.96650048    -0.07880
C645        C  0.96475537  0.05444847  0.51323495     0.05650
C646        C  0.99447550  0.06313083  0.54937957    -0.02910
Br647      Br  0.97994158  0.05092769  0.61556290    -0.02600
H648        H  0.05946352  0.08896899  0.56591964     0.09560
H649        H  0.95756134  0.06253304  0.93787401     0.07580
Br650      Br  0.03805454  0.11734850  0.89329470    -0.03030
C651        C  0.56005448  0.13131754  0.62602190    -0.09660
C652        C  0.53922989  0.12386967  0.67044059     0.06530
C653        C  0.56381248  0.14011312  0.71186692    -0.03430
C654        C  0.60670374  0.16957607  0.70719337    -0.07880
C655        C  0.62517076  0.18434166  0.66186763     0.05650
C656        C  0.60309187  0.16085605  0.62181323    -0.02910
Br657      Br  0.62983591  0.17039024  0.56035825    -0.02600
H658        H  0.54237129  0.11717445  0.59393953     0.09200
H659        H  0.62383181  0.18543406  0.73889806     0.07580
Br660      Br  0.54030431  0.12692564  0.77552775    -0.03030
C661        C  0.73958331  0.22343708  0.62532023    -0.09660
C662        C  0.72064476  0.23036159  0.66519572     0.06530
C663        C  0.73966811  0.23496460  0.71006084    -0.03430
C664        C  0.78134558  0.24393695  0.71228158    -0.07880
C665        C  0.80398279  0.24793896  0.67008649     0.05650
C666        C  0.78157292  0.23313529  0.62708915    -0.02910
Br667      Br  0.80799030  0.23043422  0.56875250    -0.02600
H668        H  0.72399846  0.21638321  0.59116338     0.09560
H669        H  0.79734382  0.25299923  0.74622756     0.07580
Br670      Br  0.71223919  0.23508065  0.76851353    -0.03030
C671        C  0.49093606  0.27548226  0.70888153    -0.09660
C672        C  0.51384648  0.29321685  0.66637533     0.06530
C673        C  0.49578117  0.27353584  0.62290309    -0.03430
C674        C  0.46124027  0.23268484  0.62359735    -0.07880
C675        C  0.44400547  0.21143812  0.66724734     0.05650
C676        C  0.45554212  0.23510113  0.70955029    -0.02910
Br677      Br  0.42795058  0.21274977  0.77005821    -0.02600
H678        H  0.50310890  0.29062768  0.74259203     0.09560
H679        H  0.45108008  0.21600061  0.59012202     0.07580
Br680      Br  0.51979716  0.29876909  0.56192648    -0.03030
C681        C  0.59978920  0.29360344  0.62268613    -0.09660
C682        C  0.58464231  0.29787591  0.66723070     0.06530
C683        C  0.59307687  0.28091899  0.70815089    -0.03430
C684        C  0.61613240  0.26032562  0.70370075    -0.07880
C685        C  0.63026347  0.25507698  0.65880311     0.05650
C686        C  0.62206695  0.27237273  0.61804763    -0.02910
Br687      Br  0.63944911  0.26819352  0.55480017    -0.02600
H688        H  0.59454174  0.30704787  0.59094691     0.09560
H689        H  0.62308157  0.24837985  0.73571818     0.07580
Br690      Br  0.57423806  0.28458505  0.77100360    -0.03030
C691        C  0.84819866  0.45589339  0.69976702    -0.09660
C692        C  0.83144567  0.45457113  0.65447369     0.06530
C693        C  0.85379086  0.45280884  0.61400451    -0.03430
C694        C  0.88536525  0.44263265  0.61968577    -0.07880
C695        C  0.89500220  0.43405592  0.66524445     0.05650
C696        C  0.87920061  0.44480984  0.70562399    -0.02910
Br697      Br  0.89531615  0.44068020  0.76968926    -0.02600
H698        H  0.83313144  0.45960226  0.73125916     0.09560
H699        H  0.89858362  0.43646375  0.58811108     0.07580
Br700      Br  0.83892503  0.45754785  0.54975362    -0.03030
C701        C  0.69660288  0.42779379  0.70220509    -0.09660
C702        C  0.71642027  0.43237656  0.65765354     0.06530
C703        C  0.69114891  0.41451302  0.61722313    -0.03430
C704        C  0.64733511  0.39338347  0.62203817    -0.07880
C705        C  0.62771781  0.38750751  0.66703642     0.05650
C706        C  0.65300541  0.40495831  0.70741192    -0.02910
Br707      Br  0.63100000  0.39808471  0.77105131    -0.02600
H708        H  0.71503417  0.44100953  0.73388701     0.09560
H709        H  0.62840545  0.38070833  0.59044829     0.07580
Br710      Br  0.71402043  0.41715440  0.55473550    -0.03030
C711        C  0.72232158  0.32054943  0.69680293    -0.09660
C712        C  0.71994882  0.29844842  0.65512225     0.06530
C713        C  0.74027078  0.32159588  0.61312552    -0.03430
C714        C  0.75956325  0.36541011  0.61284179    -0.07880
C715        C  0.76166079  0.38753090  0.65432112     0.05650
C716        C  0.74413025  0.36449740  0.69721341    -0.02910
Br717      Br  0.75109623  0.39053141  0.75822692    -0.02600
H718        H  0.70744425  0.30357651  0.72953052     0.09560
H719        H  0.77319279  0.38209507  0.57979271     0.07580
Br720      Br  0.74398496  0.29649759  0.55478513    -0.03030
C721        C  0.45130068  0.57149493  0.79407779    -0.09660
C722        C  0.46772729  0.58446919  0.83991079     0.06530
C723        C  0.43964048  0.57878878  0.87775150    -0.03430
C724        C  0.39785969  0.56708260  0.86735800    -0.07880
C725        C  0.38496615  0.56482256  0.81961395     0.05650
C726        C  0.41061723  0.56242979  0.78353630    -0.02910
Br727      Br  0.39491605  0.55268884  0.71799785    -0.02600
H728        H  0.47182104  0.57351173  0.76487807     0.09560
H729        H  0.37773360  0.56669812  0.89607526     0.07580
Br730      Br  0.45785678  0.59418136  0.94234537    -0.03030
C731        C  0.54959871  0.77386176  0.78981690    -0.09660
C732        C  0.55986748  0.76674771  0.83578263     0.06530
C733        C  0.54423584  0.77838663  0.87560884    -0.03430
C734        C  0.51327770  0.78943573  0.86901453    -0.07880
C735        C  0.49590925  0.78648131  0.82374819     0.05650
C736        C  0.51771091  0.78352914  0.78358642    -0.02910
Br737      Br  0.50222838  0.78745581  0.71945449    -0.02600
H738        H  0.56264194  0.76703113  0.75857700     0.09560
H739        H  0.49865312  0.79431640  0.90016255     0.07580
Br740      Br  0.56025413  0.77525273  0.94004093    -0.03030
C741        C  0.83151934  0.93998015  0.56968814    -0.09660
C742        C  0.85022292  0.96126966  0.52661176     0.06530
C743        C  0.82894171  0.94326796  0.98376277    -0.03430
C744        C  0.79640225  0.90142069  0.98363835    -0.07880
C745        C  0.78483186  0.87681154  0.52570618     0.05650
C746        C  0.79986121  0.89746822  0.56975377    -0.02910
Br747      Br  0.78322965  0.86884072  0.63061437    -0.02600
H748        H  0.84531576  0.95455235  0.60330712     0.09560
H749        H  0.78360856  0.88698106  0.94955737     0.07580
Br750      Br  0.84675438  0.97184444  0.92320383    -0.03030
C751        C  0.56018919  0.44713643  0.70434887    -0.09660
C752        C  0.57689078  0.47200773  0.66280861     0.06530
C753        C  0.57591883  0.45192772  0.61957260    -0.03430
C754        C  0.56701593  0.41017553  0.62092535    -0.07880
C755        C  0.55981839  0.38851500  0.66473843     0.05650
C756        C  0.55078572  0.40526629  0.70528921    -0.02910
Br757      Br  0.52919410  0.37416315  0.76389272    -0.02600
H758        H  0.55823800  0.46135041  0.73738181     0.09560
H759        H  0.57211163  0.39701121  0.58875835     0.07580
Br760      Br  0.59397323  0.48123361  0.55923940    -0.03030
C761        C  0.78098793  0.51531808  0.70919498    -0.09660
C762        C  0.78339978  0.50239351  0.66253581     0.06530
C763        C  0.78506189  0.52833763  0.62425219    -0.03430
C764        C  0.77427180  0.55917998  0.63184219    -0.07880
C765        C  0.76092444  0.56433069  0.67711131     0.05650
C766        C  0.76817261  0.54500911  0.71687487    -0.02910
Br767      Br  0.75476084  0.55224486  0.78128166    -0.02600
H768        H  0.78213931  0.49744960  0.73953813     0.09560
H769        H  0.77157542  0.57571115  0.60104383     0.07580
Br770      Br  0.79605138  0.52012483  0.55966629    -0.03030
C771        C  0.11986499  0.91261450  0.94760167    -0.09660
C772        C  0.13828212  0.91772247  0.99285112     0.06530
C773        C  0.11160248  0.90382342  0.03358213    -0.03430
C774        C  0.06987173  0.89432260  0.02923935    -0.07880
C775        C  0.05442131  0.89870622  0.98514894     0.05650
C776        C  0.07793406  0.90253491  0.94360860    -0.02910
Br777      Br  0.05552551  0.89917888  0.88108525    -0.02600
H778        H  0.13906448  0.92054017  0.91538968     0.09560
H779        H  0.05186897  0.88964089  0.56151001     0.07580
Br780      Br  0.13108018  0.90332614  0.09695094    -0.03030
C781        C  0.05725683  0.98568278  0.93913060    -0.09660
C782        C  0.05104716  0.96551884  0.98365535     0.06530
C783        C  0.06672299  0.99042669  0.52476766    -0.03430
C784        C  0.08904369  0.03424805  0.02032033    -0.07880
C785        C  0.09504691  0.05446263  0.97561533     0.05650
C786        C  0.07777495  0.02945624  0.93488995    -0.02910
Br787      Br  0.07892497  0.05194987  0.87274552    -0.02600
H788        H  0.04536941  0.96728768  0.90721343     0.09560
H789        H  0.10100404  0.05277304  0.55234558     0.07580
Br790      Br  0.05725224  0.96690732  0.58810231    -0.03030
C791        C  0.95155936  0.92422716  0.54439265    -0.09660
C792        C  0.96203887  0.91998965  0.49731936     0.06530
C793        C  0.95041786  0.93764968  0.95970375    -0.03430
C794        C  0.93084138  0.96082736  0.97011178    -0.07880
C795        C  0.91991966  0.96469514  0.51724918     0.05650
C796        C  0.92973417  0.94519045  0.55463665    -0.02910
Br797      Br  0.91449021  0.94484969  0.62039641    -0.02600
H798        H  0.96017179  0.91092133  0.57368196     0.09560
H799        H  0.92366461  0.97552471  0.94094271     0.07580
Br800      Br  0.95847147  0.93014140  0.89347031    -0.03030
C801        C  0.89742069  0.79454947  0.52907079    -0.09660
C802        C  0.87323293  0.78541835  0.48754296     0.06530
C803        C  0.89435399  0.80266827  0.94358559    -0.03430
C804        C  0.93684261  0.83429975  0.94363071    -0.07880
C805        C  0.95806441  0.85023046  0.48676915     0.05650
C806        C  0.93950218  0.82667400  0.52898218    -0.02910
Br807      Br  0.96787055  0.84019786  0.58893385    -0.02600
H808        H  0.88253463  0.77995434  0.56294827     0.09560
H809        H  0.95151267  0.85033081  0.91032203     0.07580
Br810      Br  0.86649755  0.78911640  0.88306190    -0.03030
loop_ 
_geom_bond_atom_site_label_1 
_geom_bond_atom_site_label_2 
_geom_bond_distance 
_geom_bond_site_symmetry_2 
_ccdc_geom_bond_type 
C1          C370   1.486       .  S
C1          C377   1.497       .  S
C1          C407   1.361   1_455  D
C2          C387   1.490       .  S
C2          C400   1.489       .  S
C2          C406   1.361   1_655  D
In3           O5   2.241       .  S
In3           O6   2.238       .  S
In3          O14   2.219       .  S
In3           O8   2.286       .  S
In3          O10   2.248       .  S
In3          O11   2.267       .  S
In3          O12   2.244       .  S
In3          O15   2.234       .  S
C4           O10   1.262       .  A
C4           O12   1.262       .  A
C4           C30   1.465       .  S
O5           C13   1.263       .  A
O6           C13   1.262       .  A
C7           O14   1.256       .  A
C7            O8   1.262       .  A
C7          C360   1.485       .  S
C9           O11   1.260       .  A
C9           O15   1.257       .  A
C9          C347   1.480       .  S
C13          C22   1.461       .  S
In16         O19   2.269       .  S
In16         O24   2.237       .  S
In16         O25   2.245       .  S
In16         O28   2.245       .  S
In16        O423   2.242   1_554  S
In16        O432   2.250   1_554  S
In16        O426   2.238   1_554  S
In16        O428   2.271   1_554  S
C17          O25   1.257   1_556  A
C17         O428   1.258       .  A
C17         C397   1.487       .  S
O18        In421   2.242       .  S
O18         C431   1.257       .  A
O19          C26   1.258       .  A
C20          O27   1.262       .  A
C20          O21   1.261       .  A
C20          C39   1.462       .  S
O21        In421   2.238       .  S
C22          O24   1.261       .  A
C22          O28   1.263       .  A
O23        In421   2.271       .  S
O23         C422   1.258       .  A
C26         O423   1.257   1_554  A
C26         C340   1.486       .  S
O27        In421   2.250       .  S
In29         O31   2.233       .  S
In29         O32   2.247       .  S
In29         O40   2.232       .  S
In29         O34   2.264       .  S
In29         O36   2.241       .  S
In29         O37   2.282       .  S
In29         O38   2.245       .  S
In29         O41   2.210       .  S
C30          O36   1.263       .  A
C30          O38   1.264       .  A
O31          C39   1.261       .  A
O32          C39   1.264       .  A
C33          O40   1.257       .  A
C33          O34   1.264       .  A
C33         C327   1.481       .  S
C35          O37   1.264       .  A
C35          O41   1.257       .  A
C35         C317   1.482       .  S
C42         C287   1.488       .  S
C42         C310   1.499       .  S
C42          C43   1.366       .  D
C43         C297   1.498       .  S
C43         C357   1.495       .  S
C44         C300   1.495       .  S
C44         C350   1.489       .  S
C44          C45   1.361       .  D
C45         C267   1.486       .  S
C45         C277   1.495       .  S
C46         C257   1.489       .  S
C46         C307   1.498       .  S
C46          C47   1.362       .  D
C47         C250   1.490       .  S
C47         C280   1.496       .  S
C48         C230   1.490       .  S
C48         C240   1.500       .  S
C48          C49   1.363   1_545  D
C49         C337   1.490       .  S
C49         C390   1.493       .  S
In50         O52   2.225       .  S
In50         O53   2.276       .  S
In50         O61   2.224       .  S
In50         O55   2.241       .  S
In50         O57   2.260       .  S
In50         O58   2.229       .  S
In50         O59   2.220       .  S
In50         O62   2.240       .  S
C51          O57   1.264       .  A
C51          O59   1.258       .  A
C51         C270   1.482       .  S
O52          C60   1.257       .  A
O53          C60   1.264       .  A
C54          O61   1.261       .  A
C54          O55   1.264       .  A
C54          C73   1.457   1_545  S
C56          O58   1.264       .  A
C56          O62   1.263       .  A
C56          C86   1.459       .  S
C60         C247   1.484       .  S
In63         O65   2.238   1_565  S
In63         O66   2.225       .  S
In63         O74   2.217       .  S
In63         O68   2.285       .  S
In63         O70   2.245       .  S
In63         O71   2.276       .  S
In63         O72   2.226       .  S
In63         O75   2.231       .  S
C64          O70   1.264       .  A
C64          O72   1.261       .  A
C64          C77   1.458       .  S
O65          C73   1.264   1_545  A
O66          C73   1.263       .  A
C67          O74   1.256       .  A
C67          O68   1.262       .  A
C67         C210   1.485       .  S
C69          O71   1.260       .  A
C69          O75   1.257       .  A
C69         C220   1.485       .  S
In76         O81   2.257       .  S
In76         O83   2.229       .  S
In76         O85   2.237   1_545  S
In76         O88   2.223   1_545  S
In76        O483   2.224       .  S
In76        O484   2.245       .  S
In76        O492   2.234       .  S
In76        O489   2.263   1_545  S
C77          O83   1.264   1_565  A
C77          O85   1.263       .  A
O78        In481   2.224       .  S
O78          C86   1.261       .  A
O79        In481   2.245       .  S
O79          C86   1.265       .  A
C80          O81   1.265       .  A
C80         O492   1.258       .  A
C80         C200   1.481       .  S
C82          O88   1.258       .  A
C82         O489   1.265       .  A
C82         C367   1.484       .  S
O84        In481   2.263   1_565  S
O84         C487   1.265   1_554  A
O87        In481   2.234       .  S
O87         C485   1.258       .  A
In89         O91   2.230       .  S
In89         O92   2.237       .  S
In89        O100   2.232       .  S
In89         O94   2.263       .  S
In89         O96   2.236       .  S
In89         O97   2.267       .  S
In89         O98   2.229       .  S
In89        O101   2.228       .  S
C90          O96   1.264       .  A
C90          O98   1.262       .  A
C90         C116   1.456       .  S
O91          C99   1.261       .  A
O92          C99   1.264       .  A
C93         O100   1.257       .  A
C93          O94   1.264       .  A
C93         C290   1.481       .  S
C95          O97   1.264       .  A
C95         O101   1.257       .  A
C95         C260   1.479       .  S
C99         C106   1.458   1_655  S
In102       O104   2.238       .  S
In102       O105   2.254       .  S
In102       O113   2.233       .  S
In102       O107   2.234       .  S
In102       O109   2.269       .  S
In102       O110   2.239       .  S
In102       O111   2.222       .  S
In102       O114   2.241       .  S
C103        O109   1.265       .  A
C103        O111   1.257       .  A
C103        C180   1.482       .  S
O104        C112   1.258       .  A
O105        C112   1.265       .  A
C106        O113   1.261       .  A
C106        O107   1.264       .  A
C108        O110   1.263       .  A
C108        O114   1.262       .  A
C108        C125   1.462       .  S
C112        C190   1.480       .  S
In115       O120   2.275       .  S
In115       O122   2.233       .  S
In115       O124   2.229   1_455  S
In115       O127   2.229   1_455  S
In115       O522   2.237   1_554  S
In115       O523   2.239   1_554  S
In115       O531   2.219   1_554  S
In115       O528   2.262   1_454  S
C116        O122   1.264   1_655  A
C116        O124   1.262       .  A
O117       In520   2.237       .  S
O117        C125   1.263       .  A
O118       In520   2.239       .  S
O118        C125   1.264       .  A
C119        O126   1.258       .  A
C119        O525   1.264       .  A
C119        C167   1.480       .  S
O120        C524   1.264       .  A
C121        O127   1.258       .  A
C121        O528   1.263   1_554  A
C121        C227   1.482       .  S
O123       In520   2.262   1_655  S
O123        C526   1.263       .  A
O126       In520   2.219       .  S
C128        C197   1.493       .  S
C128        C380   1.501       .  S
C128        C129   1.368       .  D
C129        C170   1.496       .  S
C129        C642   1.497       .  S
C130        C157   1.492       .  S
C130        C217   1.492       .  S
C130        C131   1.368       .  D
C131        C147   1.499       .  S
C131        C187   1.494       .  S
C132        C137   1.495       .  S
C132        C330   1.488       .  S
C132        C133   1.362       .  D
C133        C160   1.497       .  S
C133        C207   1.490       .  S
C134        C140   1.502       .  S
C134        C320   1.495       .  S
C134        C135   1.368       .  D
C135        C150   1.501       .  S
C135        C177   1.492       .  S
C136        C137   1.404       .  A
C136        C141   1.399       .  A
C136        H143   1.080       .  S
C137        C138   1.408       .  A
C138        C139   1.394       .  A
C138       Br145   1.914       .  S
C139        C140   1.406       .  A
C139        H144   1.080       .  S
C140        C141   1.409       .  A
C141       Br142   1.911       .  S
C146        C147   1.404       .  A
C146        C151   1.395       .  A
C146        H153   1.081       .  S
C147        C148   1.410       .  A
C148        C149   1.397       .  A
C148       Br155   1.913       .  S
C149        C150   1.406       .  A
C149        H154   1.082       .  S
C150        C151   1.408       .  A
C151       Br152   1.909       .  S
C156        C157   1.398       .  A
C156        C161   1.393       .  A
C156        H163   1.080       .  S
C157        C158   1.410       .  A
C158        C159   1.397       .  A
C158       Br165   1.917       .  S
C159        C160   1.405       .  A
C159        H164   1.080       .  S
C160        C161   1.413       .  A
C161       Br162   1.915       .  S
C166        C167   1.403       .  A
C166        C171   1.398       .  A
C166        H578   1.084       .  S
C167        C168   1.411       .  A
C168        C169   1.403       .  A
C168       Br175   1.919       .  S
C169        C170   1.409       .  A
C169        H174   1.082       .  S
C170        C171   1.408       .  A
C171       Br577   1.908       .  S
Br172       C576   1.908       .  S
H173        C571   1.084       .  S
C176        C177   1.404       .  A
C176        C181   1.399       .  A
C176        H183   1.083       .  S
C177        C178   1.413       .  A
C178        C179   1.399       .  A
C178       Br185   1.910       .  S
C179        C180   1.401       .  A
C179        H184   1.084       .  S
C180        C181   1.413       .  A
C181       Br182   1.920       .  S
C186        C187   1.407       .  A
C186        C191   1.405       .  A
C186        H193   1.084       .  S
C187        C188   1.416       .  A
C188        C189   1.394       .  A
C188       Br195   1.908       .  S
C189        C190   1.396       .  A
C189        H194   1.084       .  S
C190        C191   1.412       .  A
C191       Br192   1.919       .  S
C196        C201   1.403       .  A
C196        C602   1.406   1_554  A
C196        H203   1.083       .  S
C197        C198   1.414       .  A
C197        C601   1.406       .  A
C198        C199   1.396       .  A
C198       Br205   1.909       .  S
C199        C200   1.399       .  A
C199        H204   1.083       .  S
C200        C606   1.412       .  A
C201        C605   1.412   1_554  A
C201       Br202   1.919       .  S
C206        C207   1.405       .  A
C206        C211   1.407       .  A
C206        H213   1.082       .  S
C207        C208   1.408       .  A
C208        C209   1.392       .  A
C208       Br215   1.914       .  S
C209        C210   1.404       .  A
C209        H214   1.084       .  S
C210        C211   1.412       .  A
C211       Br212   1.918       .  S
C216        C217   1.408       .  A
C216        C221   1.405       .  A
C216        H223   1.081       .  S
C217        C218   1.410       .  A
C218        C219   1.396       .  A
C218       Br225   1.906       .  S
C219        C220   1.402       .  A
C219        H224   1.084       .  S
C220        C221   1.412       .  A
C221       Br222   1.920       .  S
C226        C227   1.408       .  A
C226        C231   1.400       .  A
C226        H233   1.084       .  S
C227        C633   1.411   1_554  A
C228        C632   1.411       .  A
C228        C634   1.399       .  A
C228       Br235   1.920       .  S
C229        C230   1.405   1_556  A
C229        C633   1.399       .  A
C229        H639   1.079       .  S
C230        C231   1.404       .  A
C231       Br232   1.914       .  S
H234        C634   1.079       .  S
C236        C237   1.403   1_554  A
C236        C241   1.395   1_455  A
C236        H243   1.082       .  S
C237        C534   1.497       .  S
C237        C643   1.408       .  A
C238        C239   1.397   1_455  A
C238        C642   1.408       .  A
C238       Br245   1.911       .  S
C239        C645   1.405       .  A
C239        H244   1.080       .  S
C240        C241   1.411       .  A
C240        C644   1.405   1_554  A
C241       Br242   1.908       .  S
C246        C247   1.404       .  A
C246        C251   1.402       .  A
C246        H253   1.083       .  S
C247        C248   1.414       .  A
C248        C249   1.399       .  A
C248       Br255   1.921       .  S
C249        C250   1.402       .  A
C249        H254   1.081       .  S
C250        C251   1.408       .  A
C251       Br252   1.913       .  S
C256        C257   1.401       .  A
C256        C261   1.401       .  A
C256        H263   1.082       .  S
C257        C258   1.410       .  A
C258        C259   1.399       .  A
C258       Br265   1.914       .  S
C259        C260   1.402       .  A
C259        H264   1.084       .  S
C260        C261   1.412       .  A
C261       Br262   1.920       .  S
C266        C267   1.403       .  A
C266        C271   1.399       .  A
C266        H273   1.078       .  S
C267        C268   1.409       .  A
C268        C269   1.397       .  A
C268       Br275   1.917       .  S
C269        C270   1.406       .  A
C269        H274   1.084       .  S
C270        C271   1.410       .  A
C271       Br272   1.918       .  S
C276        C277   1.402       .  A
C276        C281   1.393       .  A
C276        H283   1.078       .  S
C277        C278   1.408       .  A
C278        C279   1.398       .  A
C278       Br285   1.914       .  S
C279        C280   1.406       .  A
C279        H284   1.082       .  S
C280        C281   1.408       .  A
C281       Br282   1.908       .  S
C286        C287   1.403       .  A
C286        C291   1.401       .  A
C286        H293   1.082       .  S
C287        C288   1.414       .  A
C288        C289   1.398       .  A
C288       Br295   1.914       .  S
C289        C290   1.400       .  A
C289        H294   1.083       .  S
C290        C291   1.412       .  A
C291       Br292   1.920       .  S
C296        C297   1.403       .  A
C296        C301   1.393       .  A
C296        H303   1.079       .  S
C297        C298   1.409       .  A
C298        C299   1.398       .  A
C298       Br305   1.913       .  S
C299        C300   1.405       .  A
C299        H304   1.082       .  S
C300        C301   1.406       .  A
C301       Br302   1.910       .  S
C306        C307   1.403       .  A
C306        C311   1.397       .  A
C306        H313   1.080       .  S
C307        C308   1.412       .  A
C308        C309   1.396       .  A
C308       Br315   1.917       .  S
C309        C310   1.401       .  A
C309        H314   1.075       .  S
C310        C311   1.412       .  A
C311       Br312   1.917       .  S
C316        C317   1.402       .  A
C316        C321   1.395       .  A
C316        H323   1.084       .  S
C317        C318   1.411       .  A
C318        C319   1.406       .  A
C318       Br325   1.919       .  S
C319        C320   1.409       .  A
C319        H324   1.083       .  S
C320        C321   1.409       .  A
C321       Br322   1.907       .  S
C326        C327   1.402       .  A
C326        C331   1.398       .  A
C326        H333   1.083       .  S
C327        C328   1.413       .  A
C328        C329   1.401       .  A
C328       Br335   1.920       .  S
C329        C330   1.402       .  A
C329        H334   1.082       .  S
C330        C331   1.411       .  A
C331       Br332   1.912       .  S
C336        C337   1.403       .  A
C336        C341   1.403       .  A
C336        H343   1.081       .  S
C337        C743   1.410   1_554  A
C338        C339   1.396       .  A
C338        C742   1.410       .  A
C338       Br345   1.914       .  S
C339        C745   1.404       .  A
C339        H344   1.084       .  S
C340        C341   1.414       .  A
C340        C744   1.404   1_554  A
C341       Br342   1.920       .  S
C346        C347   1.404       .  A
C346        C351   1.398       .  A
C346        H353   1.084       .  S
C347        C348   1.412       .  A
C348        C349   1.400       .  A
C348       Br355   1.919       .  S
C349        C350   1.405       .  A
C349        H354   1.083       .  S
C350        C351   1.409       .  A
C351       Br352   1.913       .  S
C356        C357   1.409       .  A
C356        C361   1.407       .  A
C356        H363   1.083       .  S
C357        C358   1.409       .  A
C358        C359   1.394       .  A
C358       Br365   1.906       .  S
C359        C360   1.402       .  A
C359        H364   1.084       .  S
C360        C361   1.413       .  A
C361       Br362   1.918       .  S
C366        C367   1.408       .  A
C366        C371   1.399       .  A
C366        H373   1.083       .  S
C367        C368   1.411       .  A
C368        C369   1.399       .  A
C368       Br375   1.919       .  S
C369        C370   1.403       .  A
C369        H779   1.077       .  S
C370        C371   1.405       .  A
C371       Br372   1.917       .  S
H374        C774   1.077       .  S
C376        C377   1.401       .  A
C376        C381   1.396   1_565  A
C376        H383   1.078       .  S
C377        C783   1.409       .  A
C378        C782   1.409   1_554  A
C378        C784   1.398   1_565  A
C378       Br385   1.915       .  S
C379        C380   1.407       .  A
C379        C783   1.398   1_545  A
C379        H789   1.082       .  S
C380        C381   1.409       .  A
C381       Br382   1.910       .  S
H384        C784   1.082       .  S
C386        C387   1.400   1_554  A
C386        C391   1.394       .  A
C386        H393   1.079       .  S
C387        C793   1.409       .  A
C388        C389   1.395       .  A
C388        C792   1.409       .  A
C388       Br395   1.916       .  S
C389        C795   1.404       .  A
C389        H394   1.080       .  S
C390        C391   1.412       .  A
C390        C794   1.404   1_554  A
C391       Br392   1.915       .  S
C396        C397   1.405   1_554  A
C396        C401   1.398       .  A
C396        H403   1.083       .  S
C397        C803   1.414       .  A
C398        C399   1.403       .  A
C398        C802   1.414       .  A
C398       Br405   1.920       .  S
C399        C805   1.404       .  A
C399        H404   1.082       .  S
C400        C401   1.409   1_556  A
C400        C804   1.404       .  A
C401       Br402   1.914       .  S
C406        C775   1.486       .  S
C406        C782   1.497       .  S
C407        C792   1.490       .  S
C407        C805   1.489       .  S
In408       O410   2.241       .  S
In408       O411   2.238       .  S
In408       O419   2.219       .  S
In408       O413   2.286       .  S
In408       O415   2.248       .  S
In408       O416   2.267       .  S
In408       O417   2.244       .  S
In408       O420   2.234       .  S
C409        O415   1.262       .  A
C409        O417   1.262       .  A
C409        C435   1.465       .  S
O410        C418   1.263       .  A
O411        C418   1.262       .  A
C412        O419   1.256       .  A
C412        O413   1.262       .  A
C412        C765   1.485       .  S
C414        O416   1.260       .  A
C414        O420   1.257       .  A
C414        C752   1.480       .  S
C418        C427   1.462       .  S
In421       O424   2.269       .  S
In421       O429   2.237       .  S
In421       O430   2.246       .  S
In421       O433   2.245       .  S
C422        O430   1.257       .  A
C422        C802   1.487       .  S
O424        C431   1.258       .  A
C425        O432   1.262       .  A
C425        O426   1.261       .  A
C425        C444   1.462       .  S
C427        O429   1.261       .  A
C427        O433   1.263       .  A
C431        C745   1.486       .  S
In434       O436   2.233       .  S
In434       O437   2.247       .  S
In434       O445   2.232       .  S
In434       O439   2.264       .  S
In434       O441   2.241       .  S
In434       O442   2.282       .  S
In434       O443   2.245       .  S
In434       O446   2.210       .  S
C435        O441   1.263       .  A
C435        O443   1.264       .  A
O436        C444   1.261       .  A
O437        C444   1.264       .  A
C438        O445   1.257       .  A
C438        O439   1.264       .  A
C438        C732   1.481       .  S
C440        O442   1.264       .  A
C440        O446   1.257       .  A
C440        C722   1.482       .  S
C447        C692   1.488       .  S
C447        C715   1.499       .  S
C447        C448   1.366       .  D
C448        C702   1.498       .  S
C448        C762   1.495       .  S
C449        C705   1.495       .  S
C449        C755   1.489       .  S
C449        C450   1.361       .  D
C450        C672   1.486       .  S
C450        C682   1.495       .  S
C451        C662   1.489       .  S
C451        C712   1.498       .  S
C451        C452   1.362       .  D
C452        C655   1.490       .  S
C452        C685   1.496       .  S
C453        C635   1.490       .  S
C453        C645   1.501       .  S
C453        C454   1.363   1_545  D
C454        C742   1.490       .  S
C454        C795   1.493       .  S
In455       O457   2.225       .  S
In455       O458   2.276       .  S
In455       O466   2.224       .  S
In455       O460   2.241       .  S
In455       O462   2.260       .  S
In455       O463   2.229       .  S
In455       O464   2.220       .  S
In455       O467   2.240       .  S
C456        O462   1.264       .  A
C456        O464   1.258       .  A
C456        C675   1.482       .  S
O457        C465   1.257       .  A
O458        C465   1.264       .  A
C459        O466   1.261       .  A
C459        O460   1.264       .  A
C459        C478   1.457   1_545  S
C461        O463   1.264       .  A
C461        O467   1.263       .  A
C461        C491   1.459       .  S
C465        C652   1.484       .  S
In468       O470   2.238   1_565  S
In468       O471   2.225       .  S
In468       O479   2.217       .  S
In468       O473   2.285       .  S
In468       O475   2.245       .  S
In468       O476   2.276       .  S
In468       O477   2.226       .  S
In468       O480   2.231       .  S
C469        O475   1.264       .  A
C469        O477   1.261       .  A
C469        C482   1.458       .  S
O470        C478   1.264   1_545  A
O471        C478   1.263       .  A
C472        O479   1.256       .  A
C472        O473   1.262       .  A
C472        C615   1.485       .  S
C474        O476   1.260       .  A
C474        O480   1.257       .  A
C474        C625   1.485       .  S
In481       O486   2.257   1_554  S
In481       O488   2.229   1_554  S
In481       O490   2.237   1_544  S
In481       O493   2.223   1_544  S
C482        O488   1.264   1_565  A
C482        O490   1.263       .  A
O483        C491   1.261       .  A
O484        C491   1.265       .  A
C485        O486   1.265   1_554  A
C485        C605   1.481   1_554  S
C487        O493   1.258       .  A
C487        C772   1.484       .  S
In494       O496   2.230       .  S
In494       O497   2.237       .  S
In494       O505   2.232       .  S
In494       O499   2.263       .  S
In494       O501   2.236       .  S
In494       O502   2.267       .  S
In494       O503   2.229       .  S
In494       O506   2.228       .  S
C495        O501   1.264       .  A
C495        O503   1.262       .  A
C495        C521   1.456       .  S
O496        C504   1.261       .  A
O497        C504   1.264       .  A
C498        O505   1.257       .  A
C498        O499   1.264       .  A
C498        C695   1.481       .  S
C500        O502   1.264       .  A
C500        O506   1.257       .  A
C500        C665   1.479       .  S
C504        C511   1.458   1_655  S
In507       O509   2.238       .  S
In507       O510   2.254       .  S
In507       O518   2.233       .  S
In507       O512   2.234       .  S
In507       O514   2.269       .  S
In507       O515   2.239       .  S
In507       O516   2.222       .  S
In507       O519   2.241       .  S
C508        O514   1.265       .  A
C508        O516   1.257       .  A
C508        C585   1.482       .  S
O509        C517   1.258       .  A
O510        C517   1.265       .  A
C511        O518   1.261       .  A
C511        O512   1.264       .  A
C513        O515   1.263       .  A
C513        O519   1.262       .  A
C513        C530   1.462       .  S
C517        C595   1.480       .  S
In520       O525   2.275       .  S
In520       O527   2.233       .  S
In520       O529   2.229   1_455  S
In520       O532   2.229   1_455  S
C521        O527   1.264   1_655  A
C521        O529   1.262       .  A
O522        C530   1.263       .  A
O523        C530   1.264       .  A
C524        O531   1.258   1_554  A
C524        C572   1.480       .  S
C526        O532   1.258       .  A
C526        C632   1.482       .  S
C533        C602   1.493       .  S
C533        C785   1.501       .  S
C533        C534   1.368       .  D
C534        C575   1.496       .  S
C535        C562   1.492       .  S
C535        C622   1.492       .  S
C535        C536   1.368       .  D
C536        C552   1.499       .  S
C536        C592   1.494       .  S
C537        C542   1.495       .  S
C537        C735   1.488       .  S
C537        C538   1.362       .  D
C538        C565   1.497       .  S
C538        C612   1.490       .  S
C539        C545   1.502       .  S
C539        C725   1.495       .  S
C539        C540   1.368       .  D
C540        C555   1.501       .  S
C540        C582   1.492       .  S
C541        C542   1.404       .  A
C541        C546   1.399       .  A
C541        H548   1.080       .  S
C542        C543   1.408       .  A
C543        C544   1.394       .  A
C543       Br550   1.914       .  S
C544        C545   1.406       .  A
C544        H549   1.080       .  S
C545        C546   1.409       .  A
C546       Br547   1.911       .  S
C551        C552   1.404       .  A
C551        C556   1.395       .  A
C551        H558   1.081       .  S
C552        C553   1.410       .  A
C553        C554   1.397       .  A
C553       Br560   1.913       .  S
C554        C555   1.406       .  A
C554        H559   1.082       .  S
C555        C556   1.408       .  A
C556       Br557   1.909       .  S
C561        C562   1.398       .  A
C561        C566   1.393       .  A
C561        H568   1.080       .  S
C562        C563   1.410       .  A
C563        C564   1.397       .  A
C563       Br570   1.917       .  S
C564        C565   1.405       .  A
C564        H569   1.080       .  S
C565        C566   1.413       .  A
C566       Br567   1.915       .  S
C571        C572   1.403   1_556  A
C571        C576   1.398       .  A
C572        C573   1.411       .  A
C573        C574   1.403       .  A
C573       Br580   1.919       .  S
C574        C575   1.409   1_554  A
C574        H579   1.082       .  S
C575        C576   1.408       .  A
C581        C582   1.404       .  A
C581        C586   1.399       .  A
C581        H588   1.083       .  S
C582        C583   1.413       .  A
C583        C584   1.399       .  A
C583       Br590   1.910       .  S
C584        C585   1.401       .  A
C584        H589   1.084       .  S
C585        C586   1.413       .  A
C586       Br587   1.920       .  S
C591        C592   1.407       .  A
C591        C596   1.405       .  A
C591        H598   1.084       .  S
C592        C593   1.416       .  A
C593        C594   1.394       .  A
C593       Br600   1.908       .  S
C594        C595   1.396       .  A
C594        H599   1.084       .  S
C595        C596   1.412       .  A
C596       Br597   1.919       .  S
C601        C606   1.403       .  A
C601        H608   1.083       .  S
C602        C603   1.414       .  A
C603        C604   1.396       .  A
C603       Br610   1.909       .  S
C604        C605   1.399       .  A
C604        H609   1.083       .  S
C606       Br607   1.919       .  S
C611        C612   1.405       .  A
C611        C616   1.407       .  A
C611        H618   1.082       .  S
C612        C613   1.408       .  A
C613        C614   1.392       .  A
C613       Br620   1.914       .  S
C614        C615   1.404       .  A
C614        H619   1.084       .  S
C615        C616   1.412       .  A
C616       Br617   1.918       .  S
C621        C622   1.408       .  A
C621        C626   1.405       .  A
C621        H628   1.081       .  S
C622        C623   1.410       .  A
C623        C624   1.396       .  A
C623       Br630   1.906       .  S
C624        C625   1.402       .  A
C624        H629   1.084       .  S
C625        C626   1.412       .  A
C626       Br627   1.920       .  S
C631        C632   1.408       .  A
C631        C636   1.400       .  A
C631        H638   1.084       .  S
C633       Br640   1.920       .  S
C634        C635   1.405       .  A
C635        C636   1.404       .  A
C636       Br637   1.914       .  S
C641        C642   1.403       .  A
C641        C646   1.395   1_455  A
C641        H648   1.082       .  S
C643        C644   1.397   1_455  A
C643       Br650   1.911       .  S
C644        H649   1.080       .  S
C645        C646   1.411       .  A
C646       Br647   1.908       .  S
C651        C652   1.404       .  A
C651        C656   1.402       .  A
C651        H658   1.083       .  S
C652        C653   1.414       .  A
C653        C654   1.399       .  A
C653       Br660   1.921       .  S
C654        C655   1.402       .  A
C654        H659   1.081       .  S
C655        C656   1.408       .  A
C656       Br657   1.913       .  S
C661        C662   1.401       .  A
C661        C666   1.401       .  A
C661        H668   1.082       .  S
C662        C663   1.410       .  A
C663        C664   1.399       .  A
C663       Br670   1.914       .  S
C664        C665   1.402       .  A
C664        H669   1.084       .  S
C665        C666   1.412       .  A
C666       Br667   1.920       .  S
C671        C672   1.403       .  A
C671        C676   1.399       .  A
C671        H678   1.078       .  S
C672        C673   1.409       .  A
C673        C674   1.397       .  A
C673       Br680   1.917       .  S
C674        C675   1.406       .  A
C674        H679   1.084       .  S
C675        C676   1.410       .  A
C676       Br677   1.918       .  S
C681        C682   1.402       .  A
C681        C686   1.393       .  A
C681        H688   1.078       .  S
C682        C683   1.408       .  A
C683        C684   1.398       .  A
C683       Br690   1.914       .  S
C684        C685   1.406       .  A
C684        H689   1.082       .  S
C685        C686   1.408       .  A
C686       Br687   1.908       .  S
C691        C692   1.403       .  A
C691        C696   1.401       .  A
C691        H698   1.082       .  S
C692        C693   1.414       .  A
C693        C694   1.398       .  A
C693       Br700   1.914       .  S
C694        C695   1.400       .  A
C694        H699   1.083       .  S
C695        C696   1.412       .  A
C696       Br697   1.920       .  S
C701        C702   1.403       .  A
C701        C706   1.393       .  A
C701        H708   1.079       .  S
C702        C703   1.409       .  A
C703        C704   1.398       .  A
C703       Br710   1.913       .  S
C704        C705   1.405       .  A
C704        H709   1.082       .  S
C705        C706   1.406       .  A
C706       Br707   1.910       .  S
C711        C712   1.403       .  A
C711        C716   1.397       .  A
C711        H718   1.080       .  S
C712        C713   1.412       .  A
C713        C714   1.396       .  A
C713       Br720   1.917       .  S
C714        C715   1.401       .  A
C714        H719   1.075       .  S
C715        C716   1.412       .  A
C716       Br717   1.917       .  S
C721        C722   1.402       .  A
C721        C726   1.395       .  A
C721        H728   1.084       .  S
C722        C723   1.411       .  A
C723        C724   1.406       .  A
C723       Br730   1.919       .  S
C724        C725   1.409       .  A
C724        H729   1.083       .  S
C725        C726   1.409       .  A
C726       Br727   1.907       .  S
C731        C732   1.402       .  A
C731        C736   1.398       .  A
C731        H738   1.083       .  S
C732        C733   1.413       .  A
C733        C734   1.401       .  A
C733       Br740   1.920       .  S
C734        C735   1.402       .  A
C734        H739   1.082       .  S
C735        C736   1.411       .  A
C736       Br737   1.912       .  S
C741        C742   1.403       .  A
C741        C746   1.403       .  A
C741        H748   1.081       .  S
C743        C744   1.396       .  A
C743       Br750   1.914       .  S
C744        H749   1.084       .  S
C745        C746   1.414       .  A
C746       Br747   1.920       .  S
C751        C752   1.404       .  A
C751        C756   1.398       .  A
C751        H758   1.084       .  S
C752        C753   1.412       .  A
C753        C754   1.400       .  A
C753       Br760   1.919       .  S
C754        C755   1.405       .  A
C754        H759   1.083       .  S
C755        C756   1.409       .  A
C756       Br757   1.913       .  S
C761        C762   1.409       .  A
C761        C766   1.407       .  A
C761        H768   1.083       .  S
C762        C763   1.409       .  A
C763        C764   1.394       .  A
C763       Br770   1.906       .  S
C764        C765   1.402       .  A
C764        H769   1.084       .  S
C765        C766   1.413       .  A
C766       Br767   1.918       .  S
C771        C772   1.408       .  A
C771        C776   1.399       .  A
C771        H778   1.083       .  S
C772        C773   1.411   1_556  A
C773        C774   1.399       .  A
C773       Br780   1.919       .  S
C774        C775   1.403   1_554  A
C775        C776   1.405       .  A
C776       Br777   1.917       .  S
C781        C782   1.401       .  A
C781        C786   1.396   1_565  A
C781        H788   1.078       .  S
C783       Br790   1.915       .  S
C784        C785   1.407   1_554  A
C785        C786   1.409       .  A
C786       Br787   1.910       .  S
C791        C792   1.400       .  A
C791        C796   1.394       .  A
C791        H798   1.079       .  S
C793        C794   1.395       .  A
C793       Br800   1.916       .  S
C794        H799   1.080       .  S
C795        C796   1.412       .  A
C796       Br797   1.915       .  S
C801        C802   1.405       .  A
C801        C806   1.398       .  A
C801        H808   1.083       .  S
C803        C804   1.403       .  A
C803       Br810   1.920       .  S
C804        H809   1.082       .  S
C805        C806   1.409       .  A
C806       Br807   1.914       .  S
