geometry optimzed in LAMMPS
_audit_creation_date              2020-11-30 
_audit_creation_method            'lammps2cif' 
_symmetry_space_group_name_H-M    'P1' 
_symmetry_Int_Tables_number       1 
_symmetry_cell_setting            triclinic 
loop_ 
_symmetry_equiv_pos_as_xyz 
  x,y,z 
_cell_length_a                    37.98064429476048 
_cell_length_b                    38.039900825903985 
_cell_length_c                    38.08360441936484 
_cell_angle_alpha                 89.95990319802571 
_cell_angle_beta                  89.90018820796958 
_cell_angle_gamma                 90.09382199601285 
loop_ 
_atom_site_label 
_atom_site_type_symbol 
_atom_site_fract_x 
_atom_site_fract_y 
_atom_site_fract_z 
_atom_site_charge 
O1          O  0.50795243  0.47501516  0.56256963    -0.88490
C2          C  0.51558983  0.42759315  0.46730101     0.87540
Mg3        Mg  0.46167957  0.50216883  0.57940901     1.58150
O4          O  0.56235996  0.50679011  0.47467326    -0.88220
O5          O  0.56427697  0.48533746  0.55493510    -0.75550
C6          C  0.41623790  0.60002278  0.44237939     0.92590
O7          O  0.44744878  0.43770356  0.51729146    -0.75370
O8          O  0.40350069  0.58570946  0.46976583    -0.82870
Mg9        Mg  0.50061204  0.42314264  0.54185501     1.57960
C10         C  0.55681429  0.58198617  0.39696445     0.92510
O11         O  0.55167618  0.40302200  0.56773578    -0.81130
H12         H  0.59806544  0.53674297  0.49903654    -0.06480
C13         C  0.46552193  0.51288970  0.42944838     0.87450
O14         O  0.48591853  0.55505213  0.56301614    -0.75640
O15         O  0.52764917  0.43897433  0.49522534    -0.88410
O16         O  0.56545468  0.54992769  0.40159600    -0.81220
C17         C  0.60337289  0.44259233  0.41838406     0.92630
C18         C  0.58380445  0.39819502  0.55928724     0.92480
Mg19       Mg  0.50028833  0.57735843  0.46025073     1.57950
O20         O  0.44867871  0.59674062  0.43420169    -0.81140
O21         O  0.55375119  0.56292653  0.48490973    -0.75380
O22         O  0.60020479  0.43470774  0.45081657    -0.81220
O23         O  0.46999010  0.40522717  0.58949771    -0.82930
O24         O  0.40101583  0.56496609  0.55098797    -0.81250
C25         C  0.57264950  0.53537192  0.48636041     0.86920
O26         O  0.47378453  0.56153364  0.50711852    -0.88390
O27         O  0.49365050  0.52537926  0.44002686    -0.88500
O28         O  0.43767076  0.51379056  0.44795205    -0.75550
Mg29       Mg  0.57941250  0.46044135  0.50192243     1.57970
O30         O  0.58762709  0.46884526  0.40498444    -0.82930
H31         H  0.53721628  0.49949387  0.59869504    -0.06650
O32         O  0.43956359  0.49371847  0.52825897    -0.88200
H33         H  0.40313741  0.46437139  0.50426027    -0.06480
H34         H  0.49850582  0.59864935  0.53492002    -0.06660
C35         C  0.42874869  0.46535546  0.51657850     0.86890
C36         C  0.53634309  0.48677803  0.57332874     0.87480
C37         C  0.48611939  0.57303743  0.53488390     0.87530
H38         H  0.46487433  0.49990015  0.40421360    -0.06640
O39         O  0.51610879  0.44572395  0.43926854    -0.75660
Mg40       Mg  0.42242127  0.53910908  0.50060889     1.58000
H41         H  0.50326643  0.40195332  0.46699788    -0.06650
C42         C  0.44360469  0.41898578  0.60485675     0.92510
O43         O  0.41422721  0.53296798  0.59808862    -0.82890
C44         C  0.39763850  0.55814024  0.58360496     0.92570
O45         O  0.59772555  0.41247971  0.53240307    -0.82880
Mg46       Mg  0.54021358  0.49889521  0.42341307     1.58180
O47         O  0.43626792  0.45144986  0.60101683    -0.81210
O48         O  0.53005644  0.59508902  0.41220732    -0.82900
O49         O  0.99451666  0.47326888  0.43784572    -0.88490
C50         C  0.98629850  0.42732026  0.53406832     0.87540
Mg51       Mg  0.04135145  0.50033822  0.42199200     1.58150
O52         O  0.93966002  0.50644188  0.52624291    -0.88220
O53         O  0.93866788  0.48534627  0.44602734    -0.75550
C54         C  0.08357346  0.60012130  0.55912550     0.92590
O55         O  0.05457403  0.43618902  0.48364842    -0.75370
O56         O  0.09773061  0.58513472  0.53281221    -0.82870
Mg57       Mg  0.00118975  0.42139288  0.45920364     1.57960
C58         C  0.94307046  0.58230160  0.60277978     0.92510
O59         O  0.94941688  0.40045153  0.43380460    -0.81130
H60         H  0.90301212  0.53522640  0.50198737    -0.06480
C61         C  0.03509310  0.51270650  0.57227225     0.87450
O62         O  0.01700118  0.55339508  0.43765165    -0.75640
O63         O  0.97454241  0.43837967  0.50586258    -0.88410
O64         O  0.93528821  0.54981944  0.59907475    -0.81220
C65         C  0.89785987  0.44160743  0.58198689     0.92630
C66         C  0.91703505  0.39727332  0.44249721     0.92480
Mg67       Mg  0.00011335  0.57691492  0.53990689     1.57950
O68         O  0.05085150  0.59679485  0.56584023    -0.81140
O69         O  0.94704508  0.56245469  0.51509090    -0.75380
O70         O  0.90218673  0.43477526  0.54950851    -0.81220
O71         O  0.03176087  0.40304671  0.41142311    -0.82930
O72         O  0.09950383  0.56513901  0.45073027    -0.81250
C73         C  0.92859339  0.53459668  0.51438476     0.86920
O74         O  0.02736048  0.56011874  0.49388965    -0.88390
O75         O  0.00705413  0.52531400  0.56158372    -0.88500
O76         O  0.06300995  0.51315409  0.55380275    -0.75550
Mg77       Mg  0.92321641  0.46054797  0.49893846     1.57970
O78         O  0.91273178  0.46796801  0.59627267    -0.82930
H79         H  0.96574389  0.49861276  0.40197225    -0.06650
O80         O  0.06224793  0.49242852  0.47355732    -0.88200
H81         H  0.09868540  0.46301312  0.49738777    -0.06480
H82         H  0.00345683  0.59702099  0.46514982    -0.06660
C83         C  0.07311448  0.46400590  0.48499306     0.86890
C84         C  0.96641870  0.48583222  0.42732864     0.87480
C85         C  0.01582761  0.57144616  0.46570746     0.87530
H86         H  0.03554149  0.49982120  0.59758132    -0.06640
O87         O  0.98501402  0.44548905  0.56206602    -0.75660
Mg88       Mg  0.07888195  0.53838215  0.50127272     1.58000
H89         H  0.99888873  0.40185472  0.53471820    -0.06650
C90         C  0.05830320  0.41717659  0.39659922     0.92510
O91         O  0.08971763  0.53066043  0.40432636    -0.82890
C92         C  0.10392240  0.55744030  0.41844289     0.92570
O93         O  0.90458217  0.41351955  0.46881671    -0.82880
Mg94       Mg  0.96056432  0.49855758  0.57792413     1.58180
O95         O  0.06647009  0.44940043  0.40091647    -0.81210
O96         O  0.96945126  0.59569352  0.58710666    -0.82900
O97         O  0.47462448  0.43806998  0.99590496    -0.88490
C98         C  0.42711601  0.53299168  0.98798529     0.87540
Mg99       Mg  0.50149757  0.42261557  0.04279700     1.58150
O100        O  0.50555276  0.52549436  0.93985295    -0.88220
O101        O  0.48471135  0.44504637  0.93962154    -0.75550
C102        C  0.60341930  0.55893893  0.08136736     0.92590
O103        O  0.43769604  0.48383312  0.05580517    -0.75370
O104        O  0.58945565  0.53207188  0.09560282    -0.82870
Mg105      Mg  0.42261387  0.45827000  0.00293717     1.57960
C106        C  0.58060586  0.60323060  0.94188813     0.92510
O107        O  0.40270715  0.43155895  0.95213989    -0.81130
H108        H  0.53405514  0.50094043  0.90315842    -0.06480
C109        C  0.51464997  0.57249652  0.03529141     0.87450
O110        O  0.55469164  0.43739554  0.01757616    -0.75640
O111        O  0.43814967  0.50494857  0.97580651    -0.88410
O112        O  0.54797319  0.59919961  0.93512577    -0.81220
C113        C  0.44032205  0.58066083  0.89895890     0.92630
C114        C  0.39772383  0.43993191  0.92011331     0.92480
Mg115      Mg  0.57765656  0.54005564  0.99886269     1.57950
O116        O  0.59858019  0.56681460  0.04918890    -0.81140
O117        O  0.56186146  0.51473774  0.94646848    -0.75380
O118        O  0.43319139  0.54819050  0.90324210    -0.81220
O119        O  0.40518830  0.41008019  0.03300211    -0.82930
O120        O  0.56762001  0.45085094  0.09889173    -0.81250
C121        C  0.53369321  0.51365828  0.92853745     0.86920
O122        O  0.56173920  0.49386794  0.02671620    -0.88390
O123        O  0.52589185  0.56111166  0.00699830    -0.88500
O124        O  0.51626472  0.55453564  0.06339588    -0.75550
Mg125      Mg  0.45925849  0.49778980  0.92413594     1.57970
O126        O  0.46633610  0.59504605  0.91433966    -0.82930
H127        H  0.49947899  0.40178033  0.96712934    -0.06650
O128        O  0.49423932  0.47452431  0.06290921    -0.88200
H129        H  0.46498629  0.49913997  0.09901137    -0.06480
H130        H  0.59827781  0.46462134  0.00272556    -0.06660
C131        C  0.46580603  0.48608302  0.07381582     0.86890
C132        C  0.48648398  0.42704335  0.96771549     0.87480
C133        C  0.57283157  0.46545060  0.01547044     0.87530
H134        H  0.50216621  0.59801493  0.03592155    -0.06640
O135        O  0.44526269  0.56106745  0.98682735    -0.75660
Mg136      Mg  0.54121159  0.50161436  0.07848341     1.58000
H137        H  0.40178651  0.53336891  0.00098279    -0.06650
C138        C  0.41879533  0.39664953  0.06033473     0.92510
O139        O  0.53128517  0.40543836  0.09118617    -0.82890
C140        C  0.55866369  0.41905685  0.10469922     0.92570
O141        O  0.41138490  0.46719053  0.90638488    -0.82880
Mg142      Mg  0.49777016  0.57715754  0.96133411     1.58180
O143        O  0.45055228  0.40258927  0.06930982    -0.81210
O144        O  0.59535964  0.58731601  0.96731381    -0.82900
O145        O  0.47873016  0.00046062  0.43578206    -0.88490
C146        C  0.42348672  0.01105400  0.52634410     0.87540
Mg147      Mg  0.51067184  0.95536204  0.42566542     1.58150
O148        O  0.49922928  0.06363850  0.52073278    -0.88220
O149        O  0.48465779  0.05766754  0.43972948    -0.75550
C150        C  0.60162110  0.93080261  0.57243438     0.92590
O151        O  0.44226266  0.94074355  0.48230992    -0.75370
O152        O  0.59011179  0.91394797  0.54598482    -0.82870
Mg153      Mg  0.42579175  0.99069854  0.45232828     1.57960
C154        C  0.56812675  0.07194608  0.60256965     0.92510
O155        O  0.40413310  0.03849960  0.42094126    -0.81130
H156        H  0.52782426  0.09982449  0.49534053    -0.06480
C157        C  0.50913418  0.97245829  0.57512831     0.87450
O158        O  0.56002350  0.98525975  0.44345600    -0.75640
O159        O  0.43579861  0.02187589  0.49822258    -0.88410
O160        O  0.53593037  0.07748709  0.59502483    -0.81220
C161        C  0.42732221  0.10351401  0.56882636     0.92630
C162        C  0.39695099  0.07075445  0.42694273     0.92480
Mg163      Mg  0.57287499  0.00984388  0.54553034     1.57950
O164        O  0.59417870  0.96302652  0.57774311    -0.81140
O165        O  0.55653190  0.05938287  0.51495236    -0.75380
O166        O  0.42203254  0.09655476  0.53644760    -0.81220
O167        O  0.41474944  0.95563661  0.40524426    -0.82930
O168        O  0.57590887  0.90298968  0.46405095    -0.81250
C169        C  0.52766110  0.07553082  0.51009466     0.86920
O170        O  0.56291118  0.97813479  0.50053015    -0.88390
O171        O  0.52016233  0.00047613  0.56276049    -0.88500
O172        O  0.51363640  0.94331088  0.55947263    -0.75550
Mg173      Mg  0.45415581  0.07438426  0.48925601     1.57970
O174        O  0.45433678  0.09211113  0.58473956    -0.82930
H175        H  0.50434653  0.02869926  0.39950488    -0.06650
O176        O  0.49974551  0.93692458  0.47788664    -0.88200
H177        H  0.47077818  0.90028507  0.50218590    -0.06480
H178        H  0.60027388  0.00341180  0.47336664    -0.06660
C179        C  0.47113904  0.92475733  0.48773212     0.86890
C180        C  0.48951588  0.02872955  0.42376482     0.87480
C181        C  0.57568860  0.98906253  0.47266470     0.87530
H182        H  0.49431987  0.97291797  0.59939393    -0.06640
O183        O  0.43922516  0.01582028  0.55542007    -0.75660
Mg184      Mg  0.54420656  0.92583006  0.51034167     1.58000
H185        H  0.39910869  0.99634011  0.52607923    -0.06650
C186        C  0.43181452  0.92876200  0.39490305     0.92510
O187        O  0.54690959  0.90979736  0.41360100    -0.82890
C188        C  0.57236295  0.89729286  0.43128839     0.92570
O189        O  0.40842114  0.08624660  0.45415982    -0.82880
Mg190      Mg  0.48895391  0.04583902  0.57289838     1.58180
O191        O  0.46391310  0.92370274  0.40328376    -0.81210
O192        O  0.58449943  0.04505223  0.59140743    -0.82900
O193        O  0.02549820  0.43846517  0.00715888    -0.88490
C194        C  0.07170856  0.53452119  0.01561868     0.87540
Mg195      Mg  0.99819799  0.42208751  0.96094605     1.58150
O196        O  0.99219574  0.52631191  0.06177707    -0.88220
O197        O  0.01342253  0.44608726  0.06301983    -0.75550
C198        C  0.89845218  0.55858957  0.91654304     0.92590
O199        O  0.06223959  0.48501898  0.94696263    -0.75370
O200        O  0.91391216  0.53221068  0.90313838    -0.82870
Mg201      Mg  0.07722866  0.46036145  0.99980778     1.57960
C202        C  0.91667648  0.60377281  0.05675627     0.92510
O203        O  0.09857081  0.43518726  0.05042422    -0.81130
H204        H  0.96243804  0.50213931  0.09783966    -0.06480
C205        C  0.98622446  0.57244606  0.96576100     0.87450
O206        O  0.94525246  0.43808068  0.98543374    -0.75640
O207        O  0.06049440  0.50629901  0.02733584    -0.88410
O208        O  0.94875811  0.59902991  0.06546251    -0.81220
C209        C  0.05663932  0.58249654  0.10285072     0.92630
C210        C  0.10127130  0.44194221  0.08309478     0.92480
Mg211      Mg  0.92168378  0.54062055  0.00036752     1.57950
O212        O  0.90192376  0.56605239  0.94903205    -0.81140
O213        O  0.93596747  0.51602457  0.05371059    -0.75380
O214        O  0.06444141  0.54997569  0.09989052    -0.81220
O215        O  0.09562788  0.41307360  0.96882884    -0.82930
O216        O  0.93482369  0.45084171  0.90172903    -0.81250
C217        C  0.96365120  0.51468427  0.07238049     0.86920
O218        O  0.93822780  0.49413178  0.97380648    -0.88390
O219        O  0.97358767  0.56158315  0.99370239    -0.88500
O220        O  0.98573212  0.55405522  0.93792326    -0.75550
Mg221      Mg  0.03821612  0.49886473  0.07881768     1.57970
O222        O  0.02986389  0.59569584  0.08784469    -0.82930
H223        H  0.00041790  0.40213521  0.03579617    -0.06650
O224        O  0.00620208  0.47368189  0.93943985    -0.88200
H225        H  0.03524558  0.49798756  0.90292373    -0.06480
H226        H  0.90146504  0.46565057  0.99850655    -0.06660
C227        C  0.03446639  0.48558581  0.92846804     0.86890
C228        C  0.01308063  0.42760680  0.03522198     0.87480
C229        C  0.92703316  0.46607927  0.98598228     0.87530
H230        H  0.99907172  0.59782774  0.96530082    -0.06640
O231        O  0.05334855  0.56240911  0.01631992    -0.75660
Mg232      Mg  0.96065255  0.50128953  0.92248984     1.58000
H233        H  0.09742234  0.53521955  0.00340693    -0.06650
C234        C  0.08183021  0.39731574  0.94273205     0.92510
O235        O  0.96701266  0.40366261  0.91361822    -0.82890
C236        C  0.94112573  0.41816281  0.89811498     0.92570
O237        O  0.08492845  0.46726279  0.09760540    -0.82880
Mg238      Mg  0.99998854  0.57776660  0.04029956     1.58180
O239        O  0.04922727  0.40079984  0.93550486    -0.81210
O240        O  0.90330896  0.58863760  0.03014202    -0.82900
O241        O  0.00666572  0.02613734  0.43909424    -0.88490
C242        C  0.01353314  0.07240736  0.53477130     0.87540
Mg243      Mg  0.96043021  0.99900107  0.42211092     1.58150
O244        O  0.06101000  0.99403417  0.52662903    -0.88220
O245        O  0.06290715  0.01565468  0.44688641    -0.75550
C246        C  0.91727189  0.89683188  0.55754705     0.92590
O247        O  0.94595749  0.06238490  0.48484333    -0.75370
O248        O  0.90321455  0.91261597  0.53166159    -0.82870
Mg249      Mg  0.99926674  0.07760268  0.46050561     1.57960
C250        C  0.05759560  0.91840076  0.60276108     0.92510
O251        O  0.05046929  0.09812060  0.43504088    -0.81130
H252        H  0.09750778  0.96545426  0.50183599    -0.06480
C253        C  0.96450623  0.98557715  0.57217795     0.87450
O254        O  0.98495209  0.94610035  0.43770771    -0.75640
O255        O  0.02597218  0.06143639  0.50682876    -0.88410
O256        O  0.06440121  0.95092986  0.59873738    -0.81220
C257        C  0.10083860  0.05830063  0.58369200     0.92630
C258        C  0.08285710  0.10249810  0.44281152     0.92480
Mg259      Mg  0.00064330  0.92219805  0.53975188     1.57950
O260        O  0.94973548  0.90089423  0.56518480    -0.81140
O261        O  0.05359128  0.93802926  0.51510282    -0.75380
O262        O  0.09799025  0.06643982  0.55129128    -0.81220
O263        O  0.96910338  0.09588656  0.41315905    -0.82930
O264        O  0.90052439  0.93464725  0.45020748    -0.81250
C265        C  0.07198664  0.96596014  0.51444908     0.86920
O266        O  0.97325949  0.93859897  0.49362823    -0.88390
O267        O  0.99273945  0.97375950  0.56110742    -0.88500
O268        O  0.93661059  0.98483048  0.55383540    -0.75550
Mg269      Mg  0.07781304  0.04043767  0.49998665     1.57970
O270        O  0.08562908  0.03140898  0.59644366    -0.82930
H271        H  0.03604427  0.00167261  0.40301659    -0.06650
O272        O  0.93818020  0.00637139  0.47356513    -0.88200
H273        H  0.90172608  0.03537258  0.49793835    -0.06480
H274        H  0.99790572  0.90213636  0.46493508    -0.06660
C275        C  0.92733605  0.03459652  0.48552128     0.86890
C276        C  0.03507984  0.01434781  0.42840212     0.87480
C277        C  0.98542117  0.92765453  0.46553596     0.87530
H278        H  0.96383813  0.99799582  0.59769974    -0.06640
O279        O  0.01387739  0.05399802  0.56260416    -0.75660
Mg280      Mg  0.92147428  0.96017894  0.50095059     1.58000
H281        H  0.00095070  0.09788149  0.53522400    -0.06650
C282        C  0.94249994  0.08257109  0.39788723     0.92510
O283        O  0.91348243  0.96779914  0.40347276    -0.82890
C284        C  0.89778808  0.94182695  0.41763079     0.92570
O285        O  0.09630295  0.08796896  0.46968522    -0.82880
Mg286      Mg  0.03863030  0.00113208  0.57778255     1.58180
O287        O  0.93464432  0.05005602  0.40084231    -0.81210
O288        O  0.03176972  0.90381077  0.58718737    -0.82900
O289        O  0.43783027  0.00610702  0.02565804    -0.88490
C290        C  0.53396536  0.01354313  0.07198286     0.87540
Mg291      Mg  0.42096976  0.95999069  0.99812248     1.58150
O292        O  0.52529534  0.06130324  0.99389823    -0.88220
O293        O  0.44539961  0.06244706  0.01576151    -0.75550
C294        C  0.55776931  0.91817658  0.89697321     0.92590
O295        O  0.48418966  0.94541872  0.06156497    -0.75370
O296        O  0.53242178  0.90349430  0.91325578    -0.82870
Mg297      Mg  0.45967086  0.99822321  0.07713566     1.57960
C298        C  0.60163959  0.05867459  0.91814178     0.92510
O299        O  0.43412840  0.04860726  0.09850722    -0.81130
H300        H  0.50013499  0.09752528  0.96538173    -0.06480
C301        C  0.57145882  0.96534258  0.98533940     0.87450
O302        O  0.43677374  0.98461568  0.94530318    -0.75640
O303        O  0.50584648  0.02566944  0.06107097    -0.88410
O304        O  0.59729714  0.06545523  0.95056787    -0.81220
C305        C  0.58257467  0.10145159  0.05780527     0.92630
C306        C  0.44164391  0.08093414  0.10316176     0.92480
Mg307      Mg  0.53889692  0.00137336  0.92172039     1.57950
O308        O  0.56439044  0.95093559  0.89974893    -0.81140
O309        O  0.51391884  0.05395698  0.93792594    -0.75380
O310        O  0.55018117  0.09828126  0.06637876    -0.81220
O311        O  0.41255683  0.96733613  0.09544975    -0.82930
O312        O  0.44986010  0.90107121  0.93379228    -0.81250
C313        C  0.51300924  0.07219825  0.96586580     0.86920
O314        O  0.49295541  0.97355966  0.93802310    -0.88390
O315        O  0.56029306  0.99338909  0.97329184    -0.88500
O316        O  0.55314616  0.93738534  0.98487126    -0.75550
Mg317      Mg  0.49860226  0.07761657  0.04046281     1.57970
O318        O  0.59507678  0.08633261  0.03083301    -0.82930
H319        H  0.40150826  0.03547570  0.00160508    -0.06650
O320        O  0.47259159  0.93826653  0.00566579    -0.88200
H321        H  0.49691600  0.90150031  0.03419785    -0.06480
H322        H  0.46418464  0.99792097  0.90148365    -0.06660
C323        C  0.48457238  0.92708998  0.03370569     0.86890
C324        C  0.42698270  0.03454144  0.01419925     0.87480
C325        C  0.46475680  0.98542255  0.92698251     0.87530
H326        H  0.59699546  0.96493866  0.99783819    -0.06640
O327        O  0.56184261  0.01424834  0.05353285    -0.75660
Mg328      Mg  0.50048686  0.92196671  0.95986026     1.58000
H329        H  0.53454388  0.00093068  0.09742579    -0.06650
C330        C  0.39641476  0.94173830  0.08129659     0.92510
O331        O  0.40287945  0.91235852  0.96736044    -0.82890
C332        C  0.41738410  0.89711968  0.94138088     0.92570
O333        O  0.46794526  0.09533155  0.08814228    -0.82880
Mg334      Mg  0.57666218  0.03931724  0.00069022     1.58180
O335        O  0.39921210  0.93452073  0.04873285    -0.81210
O336        O  0.58634334  0.03266219  0.90364978    -0.82900
O337        O  0.06108592  0.00571180  0.97328340    -0.88490
C338        C  0.96452211  0.01335356  0.92738734     0.87540
Mg339      Mg  0.07828468  0.95982010  0.00071448     1.58150
O340        O  0.97226279  0.06071274  0.00593743    -0.88220
O341        O  0.05284050  0.06161301  0.98466993    -0.75550
C342        C  0.94296693  0.91706184  0.10315329     0.92590
O343        O  0.01435585  0.94527786  0.93788550    -0.75370
O344        O  0.96990957  0.90357572  0.08860779    -0.82870
Mg345      Mg  0.03892098  0.99815920  0.92180020     1.57960
C346        C  0.89596812  0.05569591  0.08213170     0.92510
O347        O  0.06480316  0.04917389  0.90028382    -0.81130
H348        H  0.99656200  0.09740602  0.03464006    -0.06480
C349        C  0.92776238  0.96373121  0.01404051     0.87450
O350        O  0.06276443  0.98448051  0.05365725    -0.75640
O351        O  0.99265248  0.02539931  0.93849072    -0.88410
O352        O  0.89909289  0.06392849  0.04971900    -0.81220
C353        C  0.91638925  0.10148827  0.94158449     0.92630
C354        C  0.05702882  0.08163322  0.89683458     0.92480
Mg355      Mg  0.95992922  0.99993417  0.07694774     1.57950
O356        O  0.93424610  0.94900312  0.09797609    -0.81140
O357        O  0.98407556  0.05316973  0.06174912    -0.75380
O358        O  0.94912780  0.09854387  0.93471778    -0.81220
O359        O  0.08581957  0.96696462  0.90288531    -0.82930
O360        O  0.05117622  0.90212329  0.06630050    -0.81250
C361        C  0.98432102  0.07173312  0.03400837     0.86920
O362        O  0.00658187  0.97344051  0.06067462    -0.88390
O363        O  0.93822370  0.99227635  0.02565601    -0.88500
O364        O  0.94648631  0.93607236  0.01559482    -0.75550
Mg365      Mg  0.99990538  0.07700416  0.95998816     1.57970
O366        O  0.90174344  0.08529274  0.96699450    -0.82930
H367        H  0.09704790  0.03495770  0.99806834    -0.06650
O368        O  0.02673170  0.93755137  0.99363481    -0.88200
H369        H  0.00152464  0.90125880  0.96519951    -0.06480
H370        H  0.03515050  0.99805256  0.09725527    -0.06660
C371        C  0.01416702  0.92674113  0.96567840     0.86890
C372        C  0.07160856  0.03399805  0.98540120     0.87480
C373        C  0.03468532  0.98547130  0.07181072     0.87530
H374        H  0.90234612  0.96247897  0.00135239    -0.06640
O375        O  0.93651143  0.01390703  0.94566792    -0.75660
Mg376      Mg  0.99984680  0.92154974  0.04036857     1.58000
H377        H  0.96403977  0.00091597  0.90187278    -0.06650
C378        C  0.10265812  0.94199819  0.91735120     0.92510
O379        O  0.09722028  0.91230057  0.03136210    -0.82890
C380        C  0.08356409  0.89802923  0.05840572     0.92570
O381        O  0.03075230  0.09504079  0.91268602    -0.82880
Mg382      Mg  0.92073122  0.03836457  0.99850280     1.58180
O383        O  0.09998941  0.93503834  0.95000018    -0.81210
O384        O  0.91242353  0.02969182  0.09499587    -0.82900
O385        O  0.68605587  0.74949566  0.27109093    -0.88490
C386        C  0.77687161  0.76024611  0.32577212     0.87540
Mg387      Mg  0.67596485  0.70463143  0.23874826     1.58150
O388        O  0.77094606  0.81363880  0.25090070    -0.88220
O389        O  0.68947369  0.80675486  0.26554361    -0.75550
C390        C  0.82305545  0.68261982  0.14646859     0.92590
O391        O  0.73349736  0.68985112  0.30630020    -0.75370
O392        O  0.79754891  0.66476353  0.15884563    -0.82870
Mg393      Mg  0.70334475  0.73933400  0.32361323     1.57960
C394        C  0.85299497  0.82355174  0.18193487     0.92510
O395        O  0.67199075  0.78619831  0.34658672    -0.81130
H396        H  0.74525052  0.85019686  0.22329850    -0.06480
C397        C  0.82601546  0.72311094  0.23903260     0.87450
O398        O  0.69355154  0.73510650  0.18976192    -0.75640
O399        O  0.74867291  0.77118448  0.31380919    -0.88410
O400        O  0.84660295  0.82752162  0.21455539    -0.81220
C401        C  0.81810147  0.85334261  0.32296127     0.92630
C402        C  0.67688486  0.81861176  0.35373188     0.92480
Mg403      Mg  0.79527735  0.76141156  0.17601731     1.57950
O404        O  0.82721204  0.71522651  0.15300954    -0.81140
O405        O  0.76455385  0.81023806  0.19377164    -0.75380
O406        O  0.78561949  0.84621009  0.32761627    -0.81220
O407        O  0.65659569  0.70427541  0.33421558    -0.82930
O408        O  0.71478938  0.65278289  0.17299242    -0.81250
C409        C  0.76007093  0.82595430  0.22286876     0.86920
O410        O  0.75080522  0.72866584  0.18617153    -0.88390
O411        O  0.81350655  0.75116468  0.22839895    -0.88500
O412        O  0.81025213  0.69395946  0.23469802    -0.75550
Mg413      Mg  0.73892216  0.82378185  0.29588873     1.57970
O414        O  0.83500078  0.84130317  0.29672598    -0.82930
H415        H  0.64930435  0.77746963  0.24605511    -0.06650
O416        O  0.72847330  0.68650964  0.24903396    -0.88200
H417        H  0.75319774  0.64972569  0.27722018    -0.06480
H418        H  0.72306761  0.75400619  0.14950616    -0.06660
C419        C  0.73863058  0.67412431  0.27729866     0.86890
C420        C  0.67368757  0.77768756  0.26066541     0.87480
C421        C  0.72267585  0.73939034  0.17386352     0.87530
H422        H  0.85045449  0.72356951  0.25354523    -0.06640
O423        O  0.80593212  0.76494585  0.30982861    -0.75660
Mg424      Mg  0.76113755  0.67620800  0.20445302     1.58000
H425        H  0.77664192  0.74529218  0.34992508    -0.06650
C426        C  0.64467065  0.67810485  0.31715829     0.92510
O427        O  0.66430205  0.65931110  0.20221578    -0.82890
C428        C  0.68201183  0.64650828  0.17687691     0.92570
O429        O  0.70320397  0.83552586  0.34171385    -0.82880
Mg430      Mg  0.82349974  0.79570159  0.26081488     1.58180
O431        O  0.65285802  0.67248904  0.28513809    -0.81210
O432        O  0.84056499  0.79811865  0.16418642    -0.82900
O433        O  0.77631066  0.25573983  0.81159962    -0.88490
C434        C  0.82279712  0.26417444  0.71583828     0.87540
Mg435      Mg  0.74853959  0.20969366  0.82729024     1.58150
O436        O  0.74359030  0.31087892  0.72380219    -0.88220
O437        O  0.76443740  0.31161863  0.80433468    -0.75550
C438        C  0.64885488  0.16658593  0.69080121     0.92590
O439        O  0.81278693  0.19545373  0.76526167    -0.75370
O440        O  0.66349709  0.15430453  0.71809111    -0.82870
Mg441      Mg  0.82803487  0.24827645  0.79011193     1.57960
C442        C  0.66889550  0.30774465  0.64587724     0.92510
O443        O  0.84938153  0.29867297  0.81544868    -0.81130
H444        H  0.71404496  0.34753087  0.74718964    -0.06480
C445        C  0.73662271  0.21543676  0.67694371     0.87450
O446        O  0.69594000  0.23501430  0.81107767    -0.75640
O447        O  0.81171184  0.27603864  0.74401106    -0.88410
O448        O  0.70099649  0.31606661  0.65120010    -0.81060
C449        C  0.80834897  0.35345609  0.66898736     0.92630
C450        C  0.85281707  0.33131304  0.80869687     0.92480
Mg451      Mg  0.67222549  0.25053527  0.70799443     1.57950
O452        O  0.65222548  0.19885757  0.68210123    -0.81140
O453        O  0.68694138  0.30385579  0.73268553    -0.75380
O454        O  0.81513557  0.35000394  0.70160240    -0.81220
O455        O  0.84584876  0.21748017  0.83791808    -0.82930
O456        O  0.68398031  0.15211620  0.79837392    -0.81250
C457        C  0.71501012  0.32201395  0.73473922     0.86920
O458        O  0.68849422  0.22410578  0.75495918    -0.88390
O459        O  0.72430172  0.24353741  0.68766005    -0.88500
O460        O  0.73579872  0.18765142  0.69546376    -0.75550
Mg461      Mg  0.78943798  0.32760778  0.75185225     1.57970
O462        O  0.78313537  0.33712468  0.65427002    -0.82930
H463        H  0.75138260  0.28410394  0.84810948    -0.06650
O464        O  0.75644315  0.18894813  0.77565820    -0.88200
H465        H  0.78502204  0.15193187  0.75169312    -0.06480
H466        H  0.65250644  0.24949300  0.78369226    -0.06660
C467        C  0.78461250  0.17747656  0.76411874     0.86890
C468        C  0.76403119  0.28371776  0.82265675     0.87480
C469        C  0.67773229  0.23636792  0.78309878     0.87530
H470        H  0.74946443  0.21477801  0.65159350    -0.06640
O471        O  0.80454312  0.26506365  0.68790640    -0.75660
Mg472      Mg  0.71046789  0.17273416  0.74824475     1.58000
H473        H  0.84829223  0.25157801  0.71524400    -0.06650
C474        C  0.83151965  0.19133588  0.85322007     0.92510
O475        O  0.71720483  0.16232926  0.84512550    -0.82890
C476        C  0.69089258  0.14746978  0.83073160     0.92570
O477        O  0.83647536  0.34601746  0.78348780    -0.82880
Mg478      Mg  0.75179386  0.28988130  0.67210234     1.58180
O479        O  0.79915390  0.18350289  0.84862758    -0.81210
O480        O  0.65473396  0.28070038  0.65965612    -0.82900
O481        O  0.22379760  0.75538029  0.68959811    -0.88490
C482        C  0.17719841  0.76542450  0.78513979     0.87540
Mg483      Mg  0.25104908  0.70889389  0.67424842     1.58150
O484        O  0.25615505  0.81211713  0.77584743    -0.88220
O485        O  0.23509097  0.81159978  0.69569146    -0.75550
C486        C  0.35203526  0.66921252  0.81083115     0.92590
O487        O  0.18718622  0.69599124  0.73716781    -0.75370
O488        O  0.33666965  0.65487443  0.78485753    -0.82870
Mg489      Mg  0.17211424  0.74837329  0.71132257     1.57960
C490        C  0.33150225  0.80976247  0.85280499     0.92510
O491        O  0.15138255  0.79848255  0.68452781    -0.81130
H492        H  0.28539733  0.84837575  0.75130314    -0.06480
C493        C  0.26330610  0.71727824  0.82410784     0.87450
O494        O  0.30399321  0.73412644  0.68923279    -0.75640
O495        O  0.18854493  0.77654331  0.75674809    -0.88410
O496        O  0.29944761  0.81822797  0.84774803    -0.81220
C497        C  0.19124827  0.85405728  0.83079873     0.92630
C498        C  0.14742417  0.83113975  0.69078279     0.92480
Mg499      Mg  0.32729278  0.75206125  0.79146859     1.57950
O500        O  0.34776909  0.70167767  0.81778503    -0.81140
O501        O  0.31252453  0.80484123  0.76592366    -0.75380
O502        O  0.18397483  0.84933503  0.79845443    -0.81220
O503        O  0.15378183  0.71677171  0.66476566    -0.82930
O504        O  0.31536695  0.65122083  0.70372614    -0.81250
C505        C  0.28455309  0.82305205  0.76418908     0.86920
O506        O  0.31098226  0.72434155  0.74554427    -0.88390
O507        O  0.27543234  0.74520738  0.81258869    -0.88500
O508        O  0.26427881  0.68900162  0.80638314    -0.75550
Mg509      Mg  0.21006744  0.82797153  0.74812134     1.57970
O510        O  0.21795275  0.83989192  0.84508789    -0.82930
H511        H  0.24855740  0.78335454  0.65254697    -0.06650
O512        O  0.24335666  0.68860829  0.72625797    -0.88200
H513        H  0.21449356  0.65246313  0.75137891    -0.06480
H514        H  0.34763811  0.74843459  0.71640930    -0.06660
C515        C  0.21513038  0.67772666  0.73836586     0.86890
C516        C  0.23589080  0.78329882  0.67799478     0.87480
C517        C  0.32214988  0.73575454  0.71719593     0.87530
H518        H  0.25054658  0.71716673  0.84950911    -0.06640
O519        O  0.19533557  0.76699871  0.81311157    -0.75660
Mg520      Mg  0.28937208  0.67279680  0.75388238     1.58000
H521        H  0.15157390  0.75302340  0.78595401    -0.06650
C522        C  0.16742597  0.69007769  0.65005414     0.92510
O523        O  0.28213238  0.66115663  0.65691077    -0.82890
C524        C  0.30850631  0.64643431  0.67134235     0.92570
O525        O  0.16275472  0.84577306  0.71666574    -0.82880
Mg526      Mg  0.24845297  0.79195605  0.82783417     1.58180
O527        O  0.19997375  0.68269933  0.65403106    -0.81210
O528        O  0.34529954  0.78265655  0.83903310    -0.82900
O529        O  0.18671799  0.24995297  0.77143815    -0.88490
C530        C  0.27742407  0.26070493  0.82617810     0.87540
Mg531      Mg  0.17651005  0.20503681  0.73941220     1.58150
O532        O  0.27146307  0.31450116  0.75165809    -0.88220
O533        O  0.18984506  0.30727324  0.76637491    -0.75550
C534        C  0.32270000  0.18324128  0.64568210     0.92590
O535        O  0.23498282  0.19067629  0.80606912    -0.75370
O536        O  0.29661006  0.16577061  0.65734225    -0.82870
Mg537      Mg  0.20434383  0.23977346  0.82370722     1.57960
C538        C  0.35445534  0.32351640  0.68328186     0.92510
O539        O  0.17214229  0.28615270  0.84628297    -0.81130
H540        H  0.24634808  0.35134346  0.72389471    -0.06480
C541        C  0.32615789  0.22327930  0.73858485     0.87450
O542        O  0.19359065  0.23585217  0.69020250    -0.75640
O543        O  0.24937163  0.27189084  0.81411256    -0.88410
O544        O  0.34660430  0.32846001  0.71545813    -0.81220
C545        C  0.31878086  0.35344738  0.82395110     0.92630
C546        C  0.17755265  0.31818500  0.85450815     0.92480
Mg547      Mg  0.29602735  0.26224771  0.67624067     1.57950
O548        O  0.32730179  0.21568422  0.65276867    -0.81140
O549        O  0.26587888  0.31145361  0.69438361    -0.75380
O550        O  0.28597237  0.34746417  0.82788358    -0.81220
O551        O  0.15833796  0.20430071  0.83487441    -0.82930
O552        O  0.21396521  0.15505826  0.67179955    -0.81250
C553        C  0.26099970  0.32699773  0.72353988     0.86920
O554        O  0.25087454  0.23004602  0.68590393    -0.88390
O555        O  0.31348731  0.25150174  0.72862334    -0.88500
O556        O  0.31049905  0.19417673  0.73356227    -0.75550
Mg557      Mg  0.23931379  0.32452696  0.79666183     1.57970
O558        O  0.33633518  0.34061370  0.79853818    -0.82930
H559        H  0.14984592  0.27794184  0.74659157    -0.06650
O560        O  0.22911767  0.18732355  0.74885807    -0.88200
H561        H  0.25478689  0.15086001  0.77662726    -0.06480
H562        H  0.22251593  0.25573975  0.64994323    -0.06660
C563        C  0.23988515  0.17505427  0.77695964     0.86890
C564        C  0.17422720  0.27816039  0.76120536     0.87480
C565        C  0.22253345  0.24079695  0.67410350     0.87530
H566        H  0.35069628  0.22349207  0.75293510    -0.06640
O567        O  0.30651893  0.26486161  0.81019434    -0.75660
Mg568      Mg  0.26088757  0.17732923  0.70345586     1.58000
H569        H  0.27697197  0.24580062  0.85035915    -0.06650
C570        C  0.14600440  0.17815972  0.81814719     0.92510
O571        O  0.16507340  0.15938423  0.70379067    -0.82890
C572        C  0.18163386  0.14770281  0.67719808     0.92570
O573        O  0.20396471  0.33544790  0.84323913    -0.82880
Mg574      Mg  0.32394322  0.29586743  0.76148616     1.58180
O575        O  0.15373149  0.17259568  0.78599777    -0.81210
O576        O  0.34274788  0.29759358  0.66572813    -0.82900
O577        O  0.22846612  0.68623285  0.25066764    -0.88490
C578        C  0.17410025  0.77754686  0.23930233     0.87540
Mg579      Mg  0.26091168  0.67556857  0.29489071     1.58150
O580        O  0.24951969  0.77148293  0.18652329    -0.88220
O581        O  0.23476626  0.68998735  0.19357427    -0.75550
C582        C  0.35410897  0.82207610  0.31878073     0.92590
O583        O  0.19417183  0.73489875  0.31009095    -0.75370
O584        O  0.34316588  0.79526425  0.33557773    -0.82870
Mg585      Mg  0.17607768  0.70463347  0.26115460     1.57960
C586        C  0.31926475  0.85309913  0.17815878     0.92510
O587        O  0.15290279  0.67287415  0.21471390    -0.81130
H588        H  0.27769000  0.74646586  0.14988149    -0.06480
C589        C  0.26088620  0.82506954  0.27819784     0.87450
O590        O  0.31015241  0.69312155  0.26436166    -0.75640
O591        O  0.18653419  0.74940315  0.22878279    -0.88410
O592        O  0.28680773  0.84617947  0.17276444    -0.81220
C593        C  0.17799391  0.81852249  0.14647445     0.92630
C594        C  0.14626863  0.67736300  0.18218129     0.92480
Mg595      Mg  0.32380563  0.79549933  0.23986175     1.57950
O596        O  0.34602495  0.82713604  0.28667538    -0.81140
O597        O  0.30681034  0.76552434  0.19026406    -0.75380
O598        O  0.17341254  0.78595013  0.15305454    -0.81220
O599        O  0.16395665  0.65924783  0.29770551    -0.82930
O600        O  0.32867480  0.71249002  0.34527407    -0.81250
C601        C  0.27779849  0.76094436  0.17430157     0.86920
O602        O  0.31398569  0.75020021  0.27120695    -0.88390
O603        O  0.27130696  0.81305785  0.24983454    -0.88500
O604        O  0.26618979  0.80918166  0.30710667    -0.75550
Mg605      Mg  0.20466300  0.73929254  0.17634766     1.57970
O606        O  0.20361139  0.83603681  0.15899518    -0.82930
H607        H  0.25351790  0.64949557  0.22270404    -0.06650
O608        O  0.25139685  0.72789389  0.31365716    -0.88200
H609        H  0.22381430  0.75368214  0.35019459    -0.06480
H610        H  0.35042648  0.72260751  0.24523088    -0.06660
C611        C  0.22333395  0.73898318  0.32591080     0.86890
C612        C  0.23906012  0.67395815  0.22251307     0.87480
C613        C  0.32612223  0.72218857  0.26005319     0.87530
H614        H  0.24605038  0.84930600  0.27830568    -0.06640
O615        O  0.18997214  0.80664720  0.23478588    -0.75660
Mg616      Mg  0.29676806  0.75965094  0.32380410     1.58000
H617        H  0.14958787  0.77723083  0.25378154    -0.06650
C618        C  0.18172725  0.64609272  0.32277610     0.92510
O619        O  0.29667123  0.66360076  0.34016236    -0.82890
C620        C  0.32325488  0.68007390  0.35205442     0.92570
O621        O  0.15880304  0.70337419  0.16516412    -0.82880
Mg622      Mg  0.23955909  0.82392866  0.20469960     1.58180
O623        O  0.21453657  0.65219062  0.32643515    -0.81210
O624        O  0.33511349  0.84167181  0.20516438    -0.82900
O625        O  0.68643177  0.25066683  0.22767266    -0.88490
C626        C  0.77787673  0.23982882  0.17323117     0.87540
Mg627      Mg  0.67593145  0.29465021  0.26039414     1.58150
O628        O  0.77141813  0.18647075  0.24800458    -0.88220
O629        O  0.69001492  0.19342895  0.23328728    -0.75550
C630        C  0.82261112  0.31763231  0.35289222     0.92590
O631        O  0.73518224  0.31062027  0.19356596    -0.75370
O632        O  0.79563609  0.33436937  0.34236633    -0.82870
Mg633      Mg  0.70477522  0.26167281  0.17546521     1.57960
C634        C  0.85384237  0.17703918  0.31708691     0.92510
O635        O  0.67257388  0.21530667  0.15243148    -0.81130
H636        H  0.74595660  0.14968787  0.27574059    -0.06480
C637        C  0.82576076  0.27762871  0.25970414     0.87450
O638        O  0.69348739  0.26383259  0.30918849    -0.75640
O639        O  0.74957614  0.22952828  0.18569368    -0.88410
O640        O  0.84662497  0.17204869  0.28476975    -0.81220
C641        C  0.81812377  0.14698240  0.17595256     0.92630
C642        C  0.67758781  0.18295289  0.14519989     0.92480
Mg643      Mg  0.79597591  0.23900195  0.32237205     1.57950
O644        O  0.82827894  0.28570965  0.34441066    -0.81140
O645        O  0.76543845  0.18966718  0.30519311    -0.75380
O646        O  0.78615143  0.15542425  0.17044665    -0.81220
O647        O  0.65958034  0.29820019  0.16370642    -0.82930
O648        O  0.71313190  0.34616586  0.32755586    -0.81250
C649        C  0.76069962  0.17402247  0.27608932     0.86920
O650        O  0.75065960  0.27075961  0.31289840    -0.88390
O651        O  0.81374039  0.24916144  0.26998650    -0.88500
O652        O  0.80986591  0.30651247  0.26526204    -0.75550
Mg653      Mg  0.73950515  0.17699339  0.20284257     1.57970
O654        O  0.83508301  0.15756875  0.20271898    -0.82930
H655        H  0.64951671  0.22242345  0.25241489    -0.06650
O656        O  0.72840250  0.31362967  0.25070735    -0.88200
H657        H  0.75409218  0.35055444  0.22339367    -0.06480
H658        H  0.72297394  0.24455111  0.34916208    -0.06660
C659        C  0.73939019  0.32620048  0.22277377     0.86890
C660        C  0.67403957  0.22237127  0.23795188     0.87480
C661        C  0.72258110  0.25951561  0.32501890     0.87530
H662        H  0.85003021  0.27786796  0.24482156    -0.06640
O663        O  0.80700186  0.23455030  0.18875464    -0.75660
Mg664      Mg  0.76028405  0.32348719  0.29589124     1.58000
H665        H  0.77773727  0.25455862  0.14894034    -0.06650
C666        C  0.64682787  0.32329912  0.18169704     0.92510
O667        O  0.66410962  0.33960229  0.29638511    -0.82890
C668        C  0.68063629  0.35284431  0.32216043     0.92570
O669        O  0.70400823  0.16616458  0.15694410    -0.82880
Mg670      Mg  0.82405392  0.20399885  0.23806753     1.58180
O671        O  0.65261674  0.32659500  0.21448522    -0.81210
O672        O  0.84189381  0.20351116  0.33363062    -0.82900
O673        O  0.27525732  0.24451675  0.18834412    -0.88490
C674        C  0.32187863  0.23560243  0.28353362     0.87540
Mg675      Mg  0.24835636  0.29104738  0.17221928     1.58150
O676        O  0.24283740  0.18863847  0.27510005    -0.88220
O677        O  0.26413049  0.18831365  0.19493035    -0.75550
C678        C  0.14607779  0.33196022  0.30740749     0.92590
O679        O  0.31163297  0.30429525  0.23498121    -0.75370
O680        O  0.16041770  0.34602988  0.28065562    -0.82870
Mg681      Mg  0.32696054  0.25154929  0.20969787     1.57960
C682        C  0.16723008  0.19202096  0.35146565     0.92510
O683        O  0.34766833  0.20109943  0.18378789    -0.81130
H684        H  0.21365770  0.15260041  0.25034190    -0.06480
C685        C  0.23468522  0.28480625  0.32169976     0.87450
O686        O  0.19513268  0.26619006  0.18695921    -0.75640
O687        O  0.31064785  0.22372556  0.25547883    -0.88410
O688        O  0.19974058  0.18463579  0.34748787    -0.81220
C689        C  0.30713003  0.14746659  0.33077482     0.92630
C690        C  0.35173653  0.16853755  0.19047650     0.92480
Mg691      Mg  0.17158071  0.24929387  0.28921315     1.57950
O692        O  0.15123061  0.29991526  0.31573695    -0.81140
O693        O  0.18671296  0.19651286  0.26409794    -0.75380
O694        O  0.31434148  0.15016663  0.29815413    -0.81220
O695        O  0.34551563  0.28241735  0.16242472    -0.82930
O696        O  0.18368696  0.34946069  0.20002592    -0.81250
C697        C  0.21451076  0.17797030  0.26309822     0.86920
O698        O  0.18774801  0.27673764  0.24305185    -0.88390
O699        O  0.22329234  0.25662327  0.31015436    -0.88500
O700        O  0.23327113  0.31302051  0.30387514    -0.75550
Mg701      Mg  0.28885623  0.17209367  0.24755146     1.57970
O702        O  0.28143986  0.16356890  0.34489529    -0.82930
H703        H  0.25062792  0.21622119  0.15157862    -0.06650
O704        O  0.25552062  0.31215395  0.22397674    -0.88200
H705        H  0.28458755  0.34805014  0.24909253    -0.06480
H706        H  0.15116220  0.25250162  0.21410830    -0.06660
C707        C  0.28378787  0.32277020  0.23615641     0.86890
C708        C  0.26324136  0.21649493  0.17700712     0.87480
C709        C  0.17672241  0.26503307  0.21483352     0.87530
H710        H  0.24704549  0.28525374  0.34725002    -0.06640
O711        O  0.30348095  0.23515447  0.31140006    -0.75660
Mg712      Mg  0.20884943  0.32837358  0.25081142     1.58000
H713        H  0.34755320  0.24791132  0.28403189    -0.06650
C714        C  0.33162054  0.30903947  0.14785935     0.92510
O715        O  0.21814837  0.33872935  0.15402705    -0.82890
C716        C  0.19180428  0.35401607  0.16782804     0.92570
O717        O  0.33623100  0.15403583  0.21639906    -0.82880
Mg718      Mg  0.25047863  0.21049778  0.32655373     1.58180
O719        O  0.29934978  0.31709469  0.15207671    -0.81210
O720        O  0.15339336  0.21845467  0.33646933    -0.82900
O721        O  0.77672728  0.74363631  0.68915438    -0.88490
C722        C  0.82276689  0.73681593  0.78445595     0.87540
Mg723      Mg  0.74925720  0.78925794  0.67239162     1.58150
O724        O  0.74389781  0.68969670  0.77669016    -0.88220
O725        O  0.76516589  0.68767441  0.69646369    -0.75550
C726        C  0.64570784  0.83273321  0.80670587     0.92590
O727        O  0.81212029  0.80433988  0.73533664    -0.75370
O728        O  0.66087368  0.84646128  0.78017379    -0.82870
Mg729      Mg  0.82836448  0.75156832  0.71074268     1.57960
C730        C  0.66825578  0.69256152  0.85324209     0.92510
O731        O  0.84974162  0.70063708  0.68523827    -0.81130
H732        H  0.71516910  0.65267263  0.75288248    -0.06480
C733        C  0.73484407  0.78622560  0.82192479     0.87450
O734        O  0.69623701  0.76438622  0.68780385    -0.75640
O735        O  0.81184040  0.72427593  0.75655037    -0.88410
O736        O  0.70094392  0.68616469  0.84920870    -0.81220
C737        C  0.80879423  0.64937672  0.83253404     0.92630
C738        C  0.85279022  0.66794378  0.69227198     0.92480
Mg739      Mg  0.67179483  0.74942336  0.79003903     1.57950
O740        O  0.65039808  0.80054481  0.81504025    -0.81140
O741        O  0.68761191  0.69642279  0.76590296    -0.75380
O742        O  0.81536421  0.65214027  0.79981297    -0.81220
O743        O  0.84718076  0.78287914  0.66394681    -0.82930
O744        O  0.68362608  0.84867645  0.69825428    -0.81250
C745        C  0.71568651  0.67831357  0.76510492     0.86920
O746        O  0.68795064  0.77644074  0.74347559    -0.88390
O747        O  0.72353503  0.75771926  0.81108570    -0.88500
O748        O  0.73344910  0.81399367  0.80339207    -0.75550
Mg749      Mg  0.78982839  0.67276491  0.74927964     1.57970
O750        O  0.78311458  0.66536924  0.84686653    -0.82930
H751        H  0.75242333  0.71492953  0.65250444    -0.06650
O752        O  0.75604443  0.81175517  0.72361346    -0.88200
H753        H  0.78464237  0.84805725  0.74866682    -0.06480
H754        H  0.65205183  0.75099931  0.71472999    -0.06660
C755        C  0.78414400  0.82265299  0.73596022     0.86890
C756        C  0.76476148  0.71551332  0.67806242     0.87480
C757        C  0.67745636  0.76384344  0.71544504     0.87530
H758        H  0.74718580  0.78733234  0.84746447    -0.06640
O759        O  0.80419341  0.73687710  0.81222091    -0.75660
Mg760      Mg  0.70904862  0.82838960  0.75001888     1.58000
H761        H  0.84832717  0.74936434  0.78485271    -0.06650
C762        C  0.83251358  0.80820253  0.64783720     0.92510
O763        O  0.71906354  0.83608005  0.65363546    -0.82890
C764        C  0.69234968  0.85183267  0.66596842     0.92570
O765        O  0.83695423  0.65397554  0.71825241    -0.82880
Mg766      Mg  0.75147322  0.71205393  0.82795629     1.58180
O767        O  0.79976641  0.81476326  0.65080606    -0.81210
O768        O  0.65370728  0.71851146  0.83787539    -0.82900
C769        C  0.87358936  0.07755978  0.10591586    -0.00300
C770        C  0.85844067  0.10879585  0.09296431    -0.12180
C771        C  0.83958964  0.13149011  0.11511517     0.01930
C772        C  0.83596472  0.12333966  0.15103348    -0.00390
C773        C  0.85023278  0.09209343  0.16394646    -0.12120
C774        C  0.86842570  0.06900388  0.14193616     0.01820
H775        H  0.86188100  0.11599782  0.06562141     0.14800
H776        H  0.84689839  0.08556303  0.19148901     0.14800
C777        C  0.88114889  0.03682979  0.15756784     0.36450
C778        C  0.82571188  0.16379032  0.10083001     0.36360
N779        N  0.89117899  0.01107025  0.17024877    -0.43890
N780        N  0.81465257  0.18973595  0.08945963    -0.43890
C781        C  0.10618052  0.87627583  0.08143814    -0.00300
C782        C  0.13155152  0.85423868  0.06606230    -0.12180
C783        C  0.15453736  0.83440262  0.08688566     0.01930
C784        C  0.15265625  0.83683203  0.12372530    -0.00390
C785        C  0.12729706  0.85860275  0.13921650    -0.12120
C786        C  0.10400505  0.87817474  0.11847989     0.01820
H787        H  0.13349462  0.85259509  0.03769275     0.14800
H788        H  0.12609845  0.86074346  0.16760120     0.14800
C789        C  0.07970067  0.90159877  0.13587282     0.36450
C790        C  0.18048888  0.81249135  0.06995270     0.36360
N791        N  0.06036322  0.92050031  0.14982274    -0.43890
N792        N  0.20132510  0.79494266  0.05640137    -0.43890
C793        C  0.07948370  0.10532864  0.87497064    -0.00300
C794        C  0.07723495  0.14173236  0.88105865    -0.12180
C795        C  0.09819587  0.16566917  0.86263075     0.01930
C796        C  0.12212233  0.15357757  0.83692950    -0.00390
C797        C  0.12398161  0.11733081  0.83004525    -0.12120
C798        C  0.10327122  0.09316985  0.84896205     0.01820
H799        H  0.05929354  0.15177084  0.90082453     0.14800
H800        H  0.14231043  0.10774848  0.81039928     0.14800
C801        C  0.10702782  0.05628526  0.84086356     0.36450
C802        C  0.09393584  0.20263317  0.87028291     0.36360
N803        N  0.11022827  0.02674443  0.83434876    -0.43890
N804        N  0.09053737  0.23221700  0.87648263    -0.43890
C805        C  0.12568603  0.92001115  0.89537752    -0.00300
C806        C  0.11077769  0.90132166  0.86740479    -0.12180
C807        C  0.13145208  0.87937474  0.84629635     0.01930
C808        C  0.16808646  0.87668048  0.85252439    -0.00390
C809        C  0.18286369  0.89547669  0.88068910    -0.12120
C810        C  0.16199070  0.91692054  0.90211999     0.01820
H811        H  0.08268867  0.90319879  0.86262282     0.14800
H812        H  0.21088548  0.89368843  0.88581157     0.14800
C813        C  0.17855834  0.93642912  0.93011156     0.36450
C814        C  0.11398061  0.85847479  0.81986215     0.36360
N815        N  0.19183184  0.95218519  0.95246344    -0.43890
N816        N  0.09993961  0.84151170  0.79889091    -0.43890
C817        C  0.89461445  0.12421752  0.91903554    -0.00300
C818        C  0.90002115  0.16065882  0.91958348    -0.12180
C819        C  0.87940713  0.18308200  0.89885545     0.01930
C820        C  0.85317688  0.16891455  0.87661428    -0.00390
C821        C  0.84786731  0.13233881  0.87621037    -0.12120
C822        C  0.86840548  0.11000547  0.89705795     0.01820
H823        H  0.91996305  0.17165243  0.93674536     0.14800
H824        H  0.82809675  0.12109349  0.85901749     0.14800
C825        C  0.86316867  0.07248599  0.89444120     0.36450
C826        C  0.88446173  0.22054651  0.90234205     0.36360
N827        N  0.85922299  0.04239790  0.89220712    -0.43890
N828        N  0.88829191  0.25057282  0.90542265    -0.43890
C829        C  0.92045340  0.89468559  0.12584735    -0.00300
C830        C  0.88368996  0.89845058  0.12390054    -0.12180
C831        C  0.86126763  0.87574455  0.14241845     0.01930
C832        C  0.87560959  0.84928234  0.16393198    -0.00390
C833        C  0.91218129  0.84632161  0.16710973    -0.12120
C834        C  0.93467225  0.86856353  0.14814130     0.01820
H835        H  0.87242040  0.91836700  0.10692177     0.14800
H836        H  0.92318018  0.82606902  0.18387615     0.14800
C837        C  0.97215310  0.86420547  0.15245765     0.36450
C838        C  0.82365198  0.87971211  0.13865901     0.36360
N839        N  0.00215509  0.86047248  0.15606253    -0.43890
N840        N  0.79349968  0.88281705  0.13566329    -0.43890
C841        C  0.60685575  0.12273785  0.07989643    -0.00300
C842        C  0.59351250  0.15028418  0.10062626    -0.12180
C843        C  0.61589601  0.17076722  0.12172367     0.01930
C844        C  0.65247213  0.16378404  0.12230500    -0.00390
C845        C  0.66562945  0.13616901  0.10179201    -0.12120
C846        C  0.64346620  0.11564954  0.08099045     0.01820
H847        H  0.56551294  0.15582066  0.10043360     0.14800
H848        H  0.69356611  0.13025148  0.10223600     0.14800
C849        C  0.65920184  0.08646169  0.06247713     0.36450
C850        C  0.60038033  0.19754067  0.14368343     0.36360
N851        N  0.67192817  0.06308558  0.04776266    -0.43890
N852        N  0.58792082  0.21889606  0.16139359    -0.43890
C853        C  0.41879394  0.10275580  0.12604937    -0.00300
C854        C  0.41620485  0.13887206  0.11897505    -0.12180
C855        C  0.39453085  0.16079558  0.13904555     0.01930
C856        C  0.37506700  0.14673397  0.16765537    -0.00390
C857        C  0.37781276  0.11048447  0.17467628    -0.12120
C858        C  0.39912945  0.08854033  0.15423433     0.01820
H859        H  0.43077627  0.15005929  0.09711998     0.14800
H860        H  0.36318726  0.09897040  0.19630311     0.14800
C861        C  0.40082173  0.05174973  0.16351733     0.36450
C862        C  0.39288895  0.19738696  0.12899513     0.36360
N863        N  0.40203067  0.02228522  0.17101400    -0.43890
N864        N  0.39170044  0.22660082  0.12056682    -0.43890
C865        C  0.37588991  0.91837213  0.10427817    -0.00300
C866        C  0.39424676  0.89947216  0.12979010    -0.12180
C867        C  0.37664350  0.87745578  0.15332505     0.01930
C868        C  0.33932129  0.87490879  0.15240083    -0.00390
C869        C  0.32104150  0.89357210  0.12613560    -0.12120
C870        C  0.33907013  0.91498241  0.10199405     0.01820
H871        H  0.42272240  0.90165719  0.13104546     0.14800
H872        H  0.29259261  0.89179812  0.12460915     0.14800
C873        C  0.31927601  0.93407788  0.07590873     0.36450
C874        C  0.39811034  0.85724566  0.17723461     0.36360
N875        N  0.30343397  0.94941314  0.05498835    -0.43890
N876        N  0.41545720  0.84099240  0.19618781    -0.43890
C877        C  0.58037295  0.89640514  0.87422100    -0.00300
C878        C  0.58404931  0.90533599  0.83872204    -0.12180
C879        C  0.60454384  0.88474174  0.81606007     0.01930
C880        C  0.62249153  0.85484056  0.82912474    -0.00390
C881        C  0.61881221  0.84618047  0.86487392    -0.12120
C882        C  0.59805880  0.86664564  0.88736766     0.01820
H883        H  0.57020827  0.92806789  0.82850865     0.14800
H884        H  0.63272329  0.82369804  0.87551024     0.14800
C885        C  0.59661323  0.85758005  0.92418629     0.36450
C886        C  0.60528519  0.89417706  0.77934303     0.36360
N887        N  0.59561923  0.85052363  0.95373743    -0.43890
N888        N  0.60559994  0.90176701  0.74991588    -0.43890
C889        C  0.66766915  0.12449616  0.85246568    -0.00300
C890        C  0.67019103  0.12662103  0.88922620    -0.12180
C891        C  0.64900619  0.10596909  0.91118646     0.01930
C892        C  0.62478017  0.08175250  0.89646801    -0.00390
C893        C  0.62217820  0.07971722  0.85973191    -0.12120
C894        C  0.64287913  0.10084290  0.83779105     0.01820
H895        H  0.68861573  0.14488278  0.90109571     0.14800
H896        H  0.60346089  0.06174883  0.84786827     0.14800
C897        C  0.63770186  0.09727984  0.80042707     0.36450
C898        C  0.65316820  0.11046973  0.94860474     0.36360
N899        N  0.63295508  0.09427645  0.77058289    -0.43890
N900        N  0.65662413  0.11454050  0.97851037    -0.43890
C901        C  0.39572291  0.87432531  0.91899597    -0.00300
C902        C  0.38321813  0.88765285  0.88705659    -0.12180
C903        C  0.36191447  0.86702117  0.86526930     0.01930
C904        C  0.35346859  0.83230631  0.87521998    -0.00390
C905        C  0.36646583  0.81878928  0.90691203    -0.12120
C906        C  0.38715451  0.83970358  0.92905112     0.01820
H907        H  0.38991739  0.91428278  0.87928543     0.14800
H908        H  0.36003865  0.79205876  0.91455222     0.14800
C909        C  0.39943122  0.82517509  0.96183831     0.36450
C910        C  0.34978998  0.88160298  0.83242766     0.36360
N911        N  0.40923850  0.81360007  0.98816596    -0.43890
N912        N  0.34011238  0.89320897  0.80606338    -0.43890
C913        C  0.12184308  0.08092129  0.60759764    -0.00300
C914        C  0.15003329  0.10085339  0.59416476    -0.12180
C915        C  0.17027474  0.12253740  0.61614964     0.01930
C916        C  0.16234944  0.12454895  0.65242458    -0.00390
C917        C  0.13402231  0.10484215  0.66563231    -0.12120
C918        C  0.11375567  0.08345303  0.64381940     0.01820
H919        H  0.15629185  0.09953267  0.56639799     0.14800
H920        H  0.12737657  0.10631727  0.69331400     0.14800
C921        C  0.08374645  0.06592076  0.65935804     0.36450
C922        C  0.19790614  0.14345391  0.60045805     0.36360
N923        N  0.05966217  0.05206900  0.67191114    -0.43890
N924        N  0.21996410  0.16029128  0.58783024    -0.43890
C925        C  0.10515089  0.12521528  0.41979775    -0.00300
C926        C  0.08865924  0.14563295  0.39378931    -0.12180
C927        C  0.10811485  0.16724108  0.37116611     0.01930
C928        C  0.14517985  0.16923905  0.37444093    -0.00390
C929        C  0.16177227  0.14849438  0.40003613    -0.12120
C930        C  0.14237866  0.12658862  0.42245079     0.01820
H931        H  0.06027805  0.14467344  0.39083918     0.14800
H932        H  0.19019253  0.14938951  0.40269158     0.14800
C933        C  0.16184701  0.10538938  0.44717704     0.36450
C934        C  0.08920751  0.18586711  0.34404649     0.36360
N935        N  0.17758171  0.08839557  0.46687144    -0.43890
N936        N  0.07400704  0.20064376  0.32226208    -0.43890
C937        C  0.89527848  0.87351851  0.57997232    -0.00300
C938        C  0.90469209  0.86902878  0.61540242    -0.12180
C939        C  0.88444880  0.84802022  0.63790423     0.01930
C940        C  0.85420227  0.83086567  0.62504748    -0.00390
C941        C  0.84448701  0.83539838  0.58987159    -0.12120
C942        C  0.86483320  0.85619224  0.56719952     0.01820
H943        H  0.92759181  0.88251428  0.62580068     0.14800
H944        H  0.82129870  0.82204844  0.57991653     0.14800
C945        C  0.85454600  0.85798984  0.53074888     0.36450
C946        C  0.89420434  0.84585034  0.67449133     0.36360
N947        N  0.84637038  0.85928875  0.50151389    -0.43890
N948        N  0.90179644  0.84428439  0.70386805    -0.43890
C949        C  0.91957517  0.10620804  0.37714414    -0.00300
C950        C  0.90587375  0.09507110  0.34479526    -0.12180
C951        C  0.88474857  0.11747833  0.32438616     0.01930
C952        C  0.87673470  0.15181745  0.33655679    -0.00390
C953        C  0.89013983  0.16240275  0.36930660    -0.12120
C954        C  0.91108518  0.14011731  0.38952893     0.01820
H955        H  0.91199192  0.06891499  0.33526738     0.14800
H956        H  0.88413347  0.18832241  0.37950951     0.14800
C957        C  0.92208486  0.15224042  0.42376763     0.36450
C958        C  0.87126012  0.10405288  0.29160325     0.36360
N959        N  0.93073490  0.16186408  0.45125808    -0.43890
N960        N  0.86050146  0.09314149  0.26536210    -0.43890
C961        C  0.08068373  0.89671639  0.62564769    -0.00300
C962        C  0.08337355  0.86057356  0.61881643    -0.12180
C963        C  0.10536746  0.83885352  0.63876313     0.01930
C964        C  0.12443241  0.85291275  0.66754435    -0.00390
C965        C  0.12182166  0.88921822  0.67416771    -0.12120
C966        C  0.10080381  0.91112177  0.65339181     0.01820
H967        H  0.06892609  0.84926699  0.59700828     0.14800
H968        H  0.13654954  0.90086582  0.69558826     0.14800
C969        C  0.10046584  0.94817628  0.66159251     0.36450
C970        C  0.10853522  0.80270706  0.62775892     0.36360
N971        N  0.10066857  0.97785983  0.66820265    -0.43890
N972        N  0.11124737  0.77399211  0.61816083    -0.43890
C973        C  0.87728000  0.91826810  0.39488540    -0.00300
C974        C  0.84059454  0.91655502  0.39822370    -0.12180
C975        C  0.82047509  0.89572949  0.37532870     0.01930
C976        C  0.83739549  0.87579084  0.34867463    -0.00390
C977        C  0.87439212  0.87710392  0.34636776    -0.12120
C978        C  0.89422950  0.89800439  0.36906309     0.01820
H979        H  0.82760022  0.93214892  0.41824106     0.14800
H980        H  0.88814486  0.86164606  0.32677352     0.14800
C981        C  0.93215150  0.89756335  0.36596527     0.36450
C982        C  0.78267779  0.89630400  0.37945922     0.36360
N983        N  0.96253204  0.89708775  0.36366446    -0.43890
N984        N  0.75239712  0.89692784  0.38288697    -0.43890
C985        C  0.07978415  0.60631713  0.12326096    -0.00300
C986        C  0.09557566  0.59459827  0.15445311    -0.12180
C987        C  0.11704692  0.61707511  0.17446515     0.01930
C988        C  0.12320442  0.65207822  0.16309131    -0.00390
C989        C  0.10778522  0.66330453  0.13151579    -0.12120
C990        C  0.08654229  0.64096920  0.11163688     0.01820
H991        H  0.09090857  0.56790388  0.16336519     0.14800
H992        H  0.11242011  0.68980311  0.12201756     0.14800
C993        C  0.07343380  0.65397295  0.07847566     0.36450
C994        C  0.13306870  0.60304991  0.20584423     0.36360
N995        N  0.06307958  0.66435172  0.05185874    -0.43890
N996        N  0.14590387  0.59171991  0.23095810    -0.43890
C997        C  0.16938744  0.37725350  0.14587866    -0.00300
C998        C  0.13398427  0.38210945  0.15563373    -0.12180
C999        C  0.11141579  0.40295322  0.13544899     0.01930
C1000       C  0.12414671  0.41955563  0.10486380    -0.00390
C1001       C  0.15931238  0.41471380  0.09484628    -0.12120
C1002       C  0.18207264  0.39410971  0.11514672     0.01820
H1003       H  0.12362519  0.36903146  0.17877520     0.14800
H1004       H  0.16919981  0.42767001  0.07142411     0.14800
C1005       C  0.21850401  0.39198292  0.10442244     0.36450
C1006       C  0.07486559  0.40547496  0.14566617     0.36360
N1007       N  0.24771961  0.39042882  0.09587650    -0.43890
N1008       N  0.04552269  0.40729540  0.15368839    -0.43890
C1009       C  0.15246974  0.33601617  0.87802067    -0.00300
C1010       C  0.11797037  0.34196677  0.86656151    -0.12180
C1011       C  0.09423556  0.36148090  0.88700781     0.01930
C1012       C  0.10484866  0.37480237  0.92020942    -0.00390
C1013       C  0.13929366  0.36755201  0.93185569    -0.12120
C1014       C  0.16301299  0.34865041  0.91106070     0.01820
H1015       H  0.10993910  0.33235950  0.84097252     0.14800
H1016       H  0.14807923  0.37701297  0.95722510     0.14800
C1017       C  0.19797803  0.34209350  0.92437163     0.36450
C1018       C  0.05992640  0.36846278  0.87228251     0.36360
N1019       N  0.22596924  0.33671992  0.93503777    -0.43890
N1020       N  0.03255558  0.37409182  0.86021698    -0.43890
C1021       C  0.89400773  0.62665740  0.07888565    -0.00300
C1022       C  0.90082837  0.62889882  0.11513451    -0.12180
C1023       C  0.87833042  0.64765348  0.13750540     0.01930
C1024       C  0.84861766  0.66479063  0.12363805    -0.00390
C1025       C  0.84236948  0.66378618  0.08748862    -0.12120
C1026       C  0.86474088  0.64506399  0.06504233     0.01820
H1027       H  0.92315363  0.61508438  0.12623302     0.14800
H1028       H  0.81968663  0.67738788  0.07682125     0.14800
C1029       C  0.85728133  0.64598658  0.02792312     0.36450
C1030       C  0.88575745  0.64843532  0.17467608     0.36360
N1031       N  0.85106435  0.64706647  0.99822138    -0.43890
N1032       N  0.89163372  0.64911983  0.20447604    -0.43890
C1033       C  0.87577839  0.58146200  0.89410725    -0.00300
C1034       C  0.86103832  0.61189991  0.90908663    -0.12180
C1035       C  0.83951458  0.63446721  0.88962275     0.01930
C1036       C  0.83172448  0.62661385  0.85425913    -0.00390
C1037       C  0.84691928  0.59674813  0.83889611    -0.12120
C1038       C  0.86884669  0.57435786  0.85817486     0.01820
H1039       H  0.86678405  0.61856788  0.93609921     0.14800
H1040       H  0.84153359  0.59073540  0.81157810     0.14800
C1041       C  0.88398968  0.54481972  0.83978955     0.36450
C1042       C  0.82748873  0.66647000  0.90611817     0.36360
N1043       N  0.89616082  0.52139684  0.82468304    -0.43890
N1044       N  0.81812685  0.69223925  0.91927120    -0.43890
C1045       C  0.91794221  0.39636808  0.87514392    -0.00300
C1046       C  0.92823449  0.36172933  0.86716394    -0.12180
C1047       C  0.90750970  0.34002131  0.84584387     0.01930
C1048       C  0.87594371  0.35303620  0.83126141    -0.00390
C1049       C  0.86554839  0.38749138  0.83909544    -0.12120
C1050       C  0.88564676  0.40890264  0.86125077     0.01820
H1051       H  0.95266615  0.35137306  0.87757797     0.14800
H1052       H  0.84090633  0.39742635  0.82870468     0.14800
C1053       C  0.87117678  0.44277099  0.87039677     0.36450
C1054       C  0.91984588  0.30484337  0.83869960     0.36360
N1055       N  0.85905952  0.46962434  0.87793546    -0.43890
N1056       N  0.92974425  0.27663366  0.83311441    -0.43890
C1057       C  0.33055571  0.12712416  0.35389677    -0.00300
C1058       C  0.34579836  0.14477256  0.38224642    -0.12180
C1059       C  0.36803205  0.12743292  0.40568494     0.01930
C1060       C  0.37462909  0.09087161  0.40168424    -0.00390
C1061       C  0.35946811  0.07333265  0.37275971    -0.12120
C1062       C  0.33785694  0.09121805  0.34878657     0.01820
H1063       H  0.34065743  0.17261353  0.38579547     0.14800
H1064       H  0.36425890  0.04551637  0.36887083     0.14800
C1065       C  0.32246815  0.07197801  0.31997268     0.36450
C1066       C  0.38398155  0.14852355  0.43293205     0.36360
N1067       N  0.31009560  0.05653433  0.29689991    -0.43890
N1068       N  0.39681398  0.16562182  0.45455632    -0.43890
C1069       C  0.59967383  0.87716024  0.41263020    -0.00300
C1070       C  0.60422564  0.84127898  0.41967161    -0.12180
C1071       C  0.62940949  0.82152893  0.40121433     0.01930
C1072       C  0.65071795  0.83796737  0.37539149    -0.00390
C1073       C  0.64667906  0.87422741  0.36943688    -0.12120
C1074       C  0.62146454  0.89375017  0.38767486     0.01820
H1075       H  0.58784884  0.82862997  0.43934240     0.14800
H1076       H  0.66293229  0.88740815  0.35001425     0.14800
C1077       C  0.61900723  0.93105987  0.38099759     0.36450
C1078       C  0.63354026  0.78489058  0.41017853     0.36360
N1079       N  0.61714374  0.96098216  0.37583890    -0.43890
N1080       N  0.63691723  0.75556625  0.41753822    -0.43890
C1081       C  0.58738422  0.09695244  0.62534376    -0.00300
C1082       C  0.61316751  0.08340889  0.64782360    -0.12180
C1083       C  0.63344975  0.10542979  0.66899485     0.01930
C1084       C  0.62782350  0.14228744  0.66849173    -0.00390
C1085       C  0.60214795  0.15594807  0.64567101    -0.12120
C1086       C  0.58206820  0.13370670  0.62411177     0.01820
H1087       H  0.61780502  0.05527503  0.64864467     0.14800
H1088       H  0.59785380  0.18410036  0.64446395     0.14800
C1089       C  0.55768775  0.14943148  0.59967194     0.36450
C1090       C  0.66094499  0.08915654  0.68950827     0.36360
N1091       N  0.53833874  0.16204932  0.57990724    -0.43890
N1092       N  0.68297846  0.07593137  0.70576869    -0.43890
C1093       C  0.62518666  0.91241715  0.59709894    -0.00300
C1094       C  0.65333776  0.89330499  0.58317989    -0.12180
C1095       C  0.67613976  0.87445969  0.60489995     0.01930
C1096       C  0.67046138  0.87372518  0.64182563    -0.00390
C1097       C  0.64229291  0.89343071  0.65568094    -0.12120
C1098       C  0.61989370  0.91282951  0.63374818     0.01820
H1099       H  0.65766012  0.89326078  0.55499631     0.14800
H1100       H  0.63740276  0.89342333  0.68371402     0.14800
C1101       C  0.59068237  0.93148084  0.64929015     0.36450
C1102       C  0.70476286  0.85609525  0.58793326     0.36360
N1103       N  0.56721085  0.94634393  0.66173175    -0.43890
N1104       N  0.72770883  0.84157995  0.57416315    -0.43890
C1105       C  0.40116502  0.12491280  0.58879018    -0.00300
C1106       C  0.37686079  0.14598139  0.57041716    -0.12180
C1107       C  0.35131829  0.16574538  0.58837142     0.01930
C1108       C  0.34967239  0.16445558  0.62527270    -0.00390
C1109       C  0.37367124  0.14368022  0.64368567    -0.12120
C1110       C  0.39926945  0.12406411  0.62605669     0.01820
H1111       H  0.37772184  0.14702399  0.54197352     0.14800
H1112       H  0.37216566  0.14254714  0.67213262     0.14800
C1113       C  0.42220756  0.10249397  0.64725422     0.36450
C1114       C  0.32659415  0.18650095  0.56848904     0.36360
N1115       N  0.44050623  0.08528669  0.66438698    -0.43890
N1116       N  0.30670787  0.20309756  0.55257066    -0.43890
C1117       C  0.37601193  0.84873769  0.33720506    -0.00300
C1118       C  0.37321173  0.88423373  0.32715511    -0.12180
C1119       C  0.39138946  0.91070989  0.34526372     0.01930
C1120       C  0.41354173  0.90182266  0.37359579    -0.00390
C1121       C  0.41748221  0.86632448  0.38279827    -0.12120
C1122       C  0.39874701  0.83989447  0.36525745     0.01820
H1123       H  0.35603155  0.89149249  0.30562614     0.14800
H1124       H  0.43454559  0.85927944  0.40450518     0.14800
C1125       C  0.40369847  0.80399592  0.37655261     0.36450
C1126       C  0.38741030  0.94669605  0.33384595     0.36360
N1127       N  0.40765165  0.77529727  0.38582519    -0.43890
N1128       N  0.38429119  0.97554052  0.32469329    -0.43890
C1129       C  0.37514420  0.64721485  0.83357422    -0.00300
C1130       C  0.37390929  0.61043920  0.82973837    -0.12180
C1131       C  0.39459107  0.58821871  0.85049654     0.01930
C1132       C  0.41763984  0.60265824  0.87588314    -0.00390
C1133       C  0.41903551  0.63940459  0.87961238    -0.12120
C1134       C  0.39815076  0.66162763  0.85907091     0.01820
H1135       H  0.35646150  0.59873220  0.81048467     0.14800
H1136       H  0.43636750  0.65103141  0.89902542     0.14800
C1137       C  0.40144143  0.69901365  0.86491074     0.36450
C1138       C  0.39175003  0.55082594  0.84446924     0.36360
N1139       N  0.40422155  0.72890611  0.86986645    -0.43890
N1140       N  0.38925189  0.52090727  0.83952269    -0.43890
C1141       C  0.35381556  0.33162867  0.12569171    -0.00300
C1142       C  0.36149819  0.32103565  0.09129558    -0.12180
C1143       C  0.38260923  0.34199638  0.06950365     0.01930
C1144       C  0.39693416  0.37362988  0.08251695    -0.00390
C1145       C  0.38966705  0.38391629  0.11712708    -0.12120
C1146       C  0.36784763  0.36339033  0.13861424     0.01820
H1147       H  0.35082279  0.29649564  0.08143258     0.14800
H1148       H  0.40051811  0.40832971  0.12711974     0.14800
C1149       C  0.36022817  0.37529263  0.17381426     0.36450
C1150       C  0.38996744  0.33018144  0.03422737     0.36360
N1151       N  0.35400316  0.38483284  0.20199441    -0.43890
N1152       N  0.39594796  0.32075807  0.00595600    -0.43890
C1153       C  0.62461374  0.58252352  0.10348604    -0.00300
C1154       C  0.65846740  0.57228500  0.11388654    -0.12180
C1155       C  0.67818647  0.59317008  0.13702122     0.01930
C1156       C  0.66344513  0.62435249  0.15084488    -0.00390
C1157       C  0.62965068  0.63460022  0.14000394    -0.12120
C1158       C  0.61041873  0.61423312  0.11620729     0.01820
H1159       H  0.66934505  0.54779857  0.10416553     0.14800
H1160       H  0.61824682  0.65869519  0.15010532     0.14800
C1161       C  0.57576553  0.62589331  0.10591064     0.36450
C1162       C  0.71273836  0.58123956  0.14726986     0.36360
N1163       N  0.54803149  0.63528294  0.09761591    -0.43890
N1164       N  0.74046325  0.57168715  0.15541552    -0.43890
C1165       C  0.58139803  0.39679902  0.12678377    -0.00300
C1166       C  0.61697118  0.39327368  0.11757200    -0.12180
C1167       C  0.63871923  0.36961832  0.13544318     0.01930
C1168       C  0.62507934  0.34972760  0.16364766    -0.00390
C1169       C  0.58996782  0.35448655  0.17400592    -0.12120
C1170       C  0.56792909  0.37747088  0.15548850     0.01820
H1171       H  0.62746547  0.40814204  0.09558849     0.14800
H1172       H  0.57950670  0.33946591  0.19589318     0.14800
C1173       C  0.53174750  0.38109366  0.16657334     0.36450
C1174       C  0.67501969  0.36635101  0.12457903     0.36360
N1175       N  0.50274670  0.38406386  0.17544310    -0.43890
N1176       N  0.70412009  0.36371033  0.11593224    -0.43890
C1177       C  0.64638906  0.66926479  0.87627429    -0.00300
C1178       C  0.61069343  0.67777684  0.88168245    -0.12180
C1179       C  0.58873838  0.65677186  0.90263128     0.01930
C1180       C  0.60239657  0.62652641  0.91925747    -0.00390
C1181       C  0.63793814  0.61794320  0.91401745    -0.12120
C1182       C  0.65980849  0.63851878  0.89261454     0.01820
H1183       H  0.59965560  0.70104584  0.86950512     0.14800
H1184       H  0.64862727  0.59449733  0.92621703     0.14800
C1185       C  0.69555759  0.62656475  0.88763999     0.36450
C1186       C  0.55259020  0.66757536  0.90729559     0.36360
N1187       N  0.72408426  0.61663454  0.88371264    -0.43890
N1188       N  0.52362620  0.67627500  0.91093100    -0.43890
C1189       C  0.33746064  0.37539660  0.84999724    -0.00300
C1190       C  0.36985995  0.36348170  0.86307869    -0.12180
C1191       C  0.38907234  0.38359060  0.88714169     0.01930
C1192       C  0.37639110  0.41673036  0.89767785    -0.00390
C1193       C  0.34395662  0.42868317  0.88485154    -0.12120
C1194       C  0.32412399  0.40803541  0.86162344     0.01820
H1195       H  0.38012919  0.33829290  0.85455175     0.14800
H1196       H  0.33422699  0.45424484  0.89287719     0.14800
C1197       C  0.29096061  0.42153931  0.84903542     0.36450
C1198       C  0.42228053  0.37023225  0.89981442     0.36360
N1199       N  0.26433693  0.43233721  0.83901591    -0.43890
N1200       N  0.44886490  0.35952460  0.91002792    -0.43890
C1201       C  0.08078716  0.39535147  0.37401243    -0.00300
C1202       C  0.07290934  0.39248978  0.33819377    -0.12180
C1203       C  0.09393573  0.37195695  0.31597523     0.01930
C1204       C  0.12301837  0.35356635  0.32983054    -0.00390
C1205       C  0.13064797  0.35623970  0.36576843    -0.12120
C1206       C  0.11005282  0.37733966  0.38780404     0.01820
H1207       H  0.05034034  0.40632357  0.32761076     0.14800
H1208       H  0.15316970  0.34240296  0.37645997     0.14800
C1209       C  0.11967147  0.38061577  0.42433238     0.36450
C1210       C  0.08454100  0.36919810  0.27935195     0.36360
N1211       N  0.12745981  0.38345112  0.45356055    -0.43890
N1212       N  0.07701663  0.36686317  0.25001017    -0.43890
C1213       C  0.92055174  0.60490850  0.62581267    -0.00300
C1214       C  0.89142342  0.58958228  0.64290210    -0.12180
C1215       C  0.86903428  0.60943283  0.66438616     0.01930
C1216       C  0.87556555  0.64568134  0.66957453    -0.00390
C1217       C  0.90431591  0.66119817  0.65229467    -0.12120
C1218       C  0.92671845  0.64143522  0.63071452     0.01820
H1219       H  0.88571689  0.56188209  0.63927214     0.14800
H1220       H  0.90957450  0.68900439  0.65589423     0.14800
C1221       C  0.95557352  0.65983999  0.61408142     0.36450
C1222       C  0.83869903  0.59204941  0.67942369     0.36360
N1223       N  0.97861722  0.67476957  0.60082552    -0.43890
N1224       N  0.81434333  0.57809087  0.69132164    -0.43890
C1225       C  0.10540056  0.62240183  0.58260168    -0.00300
C1226       C  0.08896175  0.64924498  0.60181852    -0.12180
C1227       C  0.10813414  0.67105268  0.62438915     0.01930
C1228       C  0.14515067  0.66693985  0.62748024    -0.00390
C1229       C  0.16136683  0.63939902  0.60884516    -0.12120
C1230       C  0.14192959  0.61698050  0.58707063     0.01820
H1231       H  0.06079259  0.65321633  0.59933945     0.14800
H1232       H  0.18942515  0.63493011  0.61151939     0.14800
C1233       C  0.15994016  0.58751669  0.57130586     0.36450
C1234       C  0.08845454  0.69636525  0.64471481     0.36360
N1235       N  0.17432371  0.56370729  0.55900651    -0.43890
N1236       N  0.07233246  0.71631651  0.66107172    -0.43890
C1237       C  0.83090843  0.37646937  0.64716461    -0.00300
C1238       C  0.84276037  0.36385223  0.61465470    -0.12180
C1239       C  0.86486084  0.38413384  0.59321119     0.01930
C1240       C  0.87479829  0.41849550  0.60380249    -0.00390
C1241       C  0.86267418  0.43102801  0.63644792    -0.12120
C1242       C  0.84114229  0.41035606  0.65812589     0.01820
H1243       H  0.83541161  0.33756460  0.60635432     0.14800
H1244       H  0.86980234  0.45723956  0.64509935     0.14800
C1245       C  0.82885015  0.42504835  0.69087098     0.36450
C1246       C  0.87793308  0.36812741  0.56136507     0.36360
N1247       N  0.81894505  0.43686455  0.71707440    -0.43890
N1248       N  0.88850104  0.35506982  0.53601447    -0.43890
C1249       C  0.16331602  0.62359433  0.34871715    -0.00300
C1250       C  0.13004961  0.63418963  0.36084073    -0.12180
C1251       C  0.11107538  0.61354940  0.38472782     0.01930
C1252       C  0.12491256  0.58116215  0.39611675    -0.00390
C1253       C  0.15824138  0.57055857  0.38437378    -0.12120
C1254       C  0.17777692  0.59174913  0.36126014     0.01820
H1255       H  0.11890347  0.65879279  0.35172922     0.14800
H1256       H  0.16889257  0.54560915  0.39311659     0.14800
C1257       C  0.21187229  0.57954615  0.34977487     0.36450
C1258       C  0.07704415  0.62569057  0.39652327     0.36360
N1259       N  0.23924521  0.56979122  0.34065685    -0.43890
N1260       N  0.04982249  0.63549135  0.40602915    -0.43890
C1261       C  0.89287620  0.37484351  0.42100250    -0.00300
C1262       C  0.90621531  0.35717163  0.39129424    -0.12180
C1263       C  0.88402009  0.33766251  0.36916596     0.01930
C1264       C  0.84762673  0.33585739  0.37630699    -0.00390
C1265       C  0.83427177  0.35281683  0.40601211    -0.12120
C1266       C  0.85629019  0.37171979  0.42855270     0.01820
H1267       H  0.93398010  0.35900644  0.38487908     0.14800
H1268       H  0.80631006  0.35114387  0.41172920     0.14800
C1269       C  0.83997958  0.38751469  0.45898743     0.36450
C1270       C  0.89885682  0.32128828  0.33831729     0.36360
N1271       N  0.82673858  0.39999663  0.48336142    -0.43890
N1272       N  0.91067755  0.30824316  0.31352128    -0.43890
C1273       C  0.39241392  0.62064666  0.41927311    -0.00300
C1274       C  0.40651657  0.64654081  0.39684603    -0.12180
C1275       C  0.38469069  0.66630593  0.37461815     0.01930
C1276       C  0.34791011  0.66066838  0.37502253    -0.00390
C1277       C  0.33398734  0.63446282  0.39689587    -0.12120
C1278       C  0.35565994  0.61426609  0.41846079     0.01820
H1279       H  0.43469252  0.65118874  0.39641441     0.14800
H1280       H  0.30586656  0.62934938  0.39684685     0.14800
C1281       C  0.33935260  0.58574375  0.43758256     0.36450
C1282       C  0.40088524  0.69046732  0.35015690     0.36360
N1283       N  0.32611146  0.56267056  0.45240903    -0.43890
N1284       N  0.41386440  0.70952709  0.33025899    -0.43890
C1285       C  0.60561496  0.37532859  0.58160069    -0.00300
C1286       C  0.61653595  0.34261059  0.56862803    -0.12180
C1287       C  0.63685213  0.31998029  0.58940548     0.01930
C1288       C  0.64729896  0.33054832  0.62329351    -0.00390
C1289       C  0.63671741  0.36343995  0.63610528    -0.12120
C1290       C  0.61558039  0.38564799  0.61572628     0.01820
H1291       H  0.60878484  0.33457238  0.54243276     0.14800
H1292       H  0.64462624  0.37156295  0.66223225     0.14800
C1293       C  0.60484783  0.41909732  0.63007678     0.36450
C1294       C  0.64703735  0.28625502  0.57536500     0.36360
N1295       N  0.59618512  0.44589595  0.64154255    -0.43890
N1296       N  0.65518205  0.25918094  0.56417806    -0.43890
C1297       C  0.42081833  0.39607453  0.62722300    -0.00300
C1298       C  0.43268016  0.36188660  0.63511609    -0.12180
C1299       C  0.41161409  0.33819013  0.65380598     0.01930
C1300       C  0.37812827  0.34855548  0.66561642    -0.00390
C1301       C  0.36637427  0.38277295  0.65893334    -0.12120
C1302       C  0.38708118  0.40645938  0.63958096     0.01820
H1303       H  0.45840890  0.35327215  0.62628180     0.14800
H1304       H  0.34038905  0.39059592  0.66783505     0.14800
C1305       C  0.37206967  0.44041747  0.63167342     0.36450
C1306       C  0.42501331  0.30338416  0.66084413     0.36360
N1307       N  0.35978363  0.46750078  0.62528445    -0.43890
N1308       N  0.43572888  0.27550558  0.66656153    -0.43890
C1309       C  0.62068685  0.65345347  0.33539871    -0.00300
C1310       C  0.62600279  0.61709742  0.33218383    -0.12180
C1311       C  0.60549910  0.59306734  0.35142131     0.01930
C1312       C  0.57867264  0.60546499  0.37423912    -0.00390
C1313       C  0.57275578  0.64195632  0.37616363    -0.12120
C1314       C  0.59332303  0.66577232  0.35714218     0.01820
H1315       H  0.64687876  0.60746494  0.31527694     0.14800
H1316       H  0.55215884  0.65224008  0.39299986     0.14800
C1317       C  0.58496628  0.70273208  0.35954365     0.36450
C1318       C  0.61277497  0.55608113  0.34698025     0.36360
N1319       N  0.57804611  0.73229471  0.36127931    -0.43890
N1320       N  0.61876502  0.52648358  0.34330356    -0.43890
C1321       C  0.33171263  0.62331063  0.64963096    -0.00300
C1322       C  0.32295443  0.61781563  0.61414548    -0.12180
C1323       C  0.34382373  0.59689306  0.59221395     0.01930
C1324       C  0.37428863  0.58041998  0.60561069    -0.00390
C1325       C  0.38305412  0.58561357  0.64102138    -0.12120
C1326       C  0.36251562  0.60694957  0.66292349     0.01820
H1327       H  0.29957370  0.62992177  0.60322630     0.14800
H1328       H  0.40659357  0.57345186  0.65157261     0.14800
C1329       C  0.37448117  0.61175856  0.69858656     0.36450
C1330       C  0.33251952  0.59211524  0.55638307     0.36360
N1331       N  0.38440131  0.61553872  0.72705747    -0.43890
N1332       N  0.32314500  0.58851720  0.52773017    -0.43890
C1333       C  0.62440085  0.41992547  0.39465352    -0.00300
C1334       C  0.61273483  0.41612245  0.35993629    -0.12180
C1335       C  0.63049647  0.39468215  0.33606245     0.01930
C1336       C  0.66128734  0.37652379  0.34655932    -0.00390
C1337       C  0.67334838  0.38073660  0.38125221    -0.12120
C1338       C  0.65508245  0.40192983  0.40534842     0.01820
H1339       H  0.58910598  0.42964481  0.35141288     0.14800
H1340       H  0.69685739  0.36705200  0.38978456     0.14800
C1341       C  0.66891267  0.40539916  0.44046954     0.36450
C1342       C  0.61643741  0.39247501  0.30087834     0.36360
N1343       N  0.68004328  0.40814793  0.46860800    -0.43890
N1344       N  0.60497279  0.39066403  0.27279422    -0.43890
loop_ 
_geom_bond_atom_site_label_1 
_geom_bond_atom_site_label_2 
_geom_bond_distance 
_geom_bond_site_symmetry_2 
_ccdc_geom_bond_type 
O1           Mg3   2.138       .  S
O1           Mg9   2.144       .  S
O1           C36   1.237       .  S
C2           O15   1.237       .  S
C2           O39   1.271       .  A
C2           H41   1.081       .  S
Mg3          O32   2.147       .  S
Mg3          O47   2.307       .  S
Mg3          O43   2.265       .  S
Mg3          O14   2.297       .  S
O4          Mg46   2.148       .  S
O4          Mg29   2.147       .  S
O4           C25   1.238       .  S
O5           C36   1.272       .  A
O5          Mg29   2.303       .  S
C6            O8   1.271       .  A
C6           O20   1.277       .  A
C6         C1273   1.488       .  S
O7           C35   1.270       .  A
O7           Mg9   2.295       .  S
O8          Mg40   2.246       .  S
Mg9          O15   2.136       .  S
Mg9          O23   2.258       .  S
Mg9          O11   2.309       .  S
C10          O48   1.272       .  A
C10          O16   1.276       .  A
C10        C1312   1.493       .  S
O11          C18   1.275       .  A
H12          C25   1.081       .  S
C13          O27   1.237       .  S
C13          O28   1.271       .  A
C13          H38   1.081       .  S
O14          C37   1.271       .  A
O15         Mg29   2.143       .  S
O16         Mg46   2.317       .  S
C17          O30   1.272       .  A
C17          O22   1.276       .  A
C17        C1333   1.483       .  S
C18          O45   1.273       .  A
C18        C1285   1.473       .  S
Mg19         O26   2.133       .  S
Mg19         O27   2.137       .  S
Mg19         O20   2.320       .  S
Mg19         O21   2.306       .  S
Mg19         O48   2.252       .  S
O21          C25   1.273       .  A
O22         Mg29   2.317       .  S
O23          C42   1.273       .  A
O24          C44   1.275       .  A
O24         Mg40   2.304       .  S
O26         Mg40   2.143       .  S
O26          C37   1.237       .  S
O27         Mg46   2.132       .  S
O28         Mg40   2.299       .  S
Mg29         O45   2.272       .  S
O30         Mg46   2.246       .  S
H31          C36   1.081       .  S
O32         Mg40   2.125       .  S
O32          C35   1.237       .  S
H33          C35   1.081       .  S
H34          C37   1.081       .  S
O39         Mg46   2.299       .  S
C42          O47   1.275       .  A
C42        C1297   1.493       .  S
O43          C44   1.273       .  A
C44        C1324   1.486       .  S
O49         Mg51   2.140   1_655  S
O49         Mg57   2.149   1_655  S
O49          C84   1.237       .  S
C50          O63   1.238       .  S
C50          O87   1.272       .  A
C50          H89   1.081       .  S
Mg51         O80   2.141       .  S
Mg51         O95   2.305       .  S
Mg51         O91   2.268       .  S
Mg51         O62   2.300       .  S
O52         Mg94   2.145       .  S
O52         Mg77   2.126       .  S
O52          C73   1.237       .  S
O53          C84   1.271       .  A
O53         Mg77   2.299       .  S
C54          O56   1.272       .  A
C54          O68   1.274       .  A
C54        C1225   1.485       .  S
O55          C83   1.271       .  A
O55         Mg57   2.302       .  S
O56         Mg88   2.263       .  S
Mg57         O63   2.144   1_455  S
Mg57         O71   2.268       .  S
Mg57         O59   2.332   1_455  S
C58          O96   1.271       .  A
C58          O64   1.278       .  A
C58        C1213   1.497       .  S
O59          C66   1.279       .  A
H60          C73   1.081       .  S
C61          O75   1.238       .  S
C61          O76   1.271       .  A
C61          H86   1.081       .  S
O62          C85   1.271       .  A
O63         Mg77   2.142       .  S
O64         Mg94   2.319       .  S
C65          O78   1.273       .  A
C65          O70   1.274       .  A
C65        C1240   1.491       .  S
C66          O93   1.269       .  A
C66        C1261   1.497       .  S
Mg67         O74   2.133       .  S
Mg67         O75   2.146       .  S
Mg67         O68   2.294       .  S
Mg67         O69   2.294   1_455  S
Mg67         O96   2.257   1_455  S
O69          C73   1.270       .  A
O70         Mg77   2.302       .  S
O71          C90   1.273       .  A
O72          C92   1.275       .  A
O72         Mg88   2.312       .  S
O74         Mg88   2.144       .  S
O74          C85   1.237       .  S
O75         Mg94   2.128   1_455  S
O76         Mg88   2.297       .  S
Mg77         O93   2.240       .  S
O78         Mg94   2.265       .  S
H79          C84   1.081       .  S
O80         Mg88   2.138       .  S
O80          C83   1.237       .  S
H81          C83   1.081       .  S
H82          C85   1.081       .  S
O87         Mg94   2.304       .  S
C90          O95   1.275       .  A
C90        C1201   1.469       .  S
O91          C92   1.272       .  A
C92        C1252   1.472       .  S
O97         Mg99   2.141   1_556  S
O97        Mg105   2.137   1_556  S
O97         C132   1.237       .  S
C98         O111   1.237       .  S
C98         O135   1.271       .  A
C98         H137   1.081   1_556  S
Mg99        O128   2.137       .  S
Mg99        O143   2.309       .  S
Mg99        O139   2.261       .  S
Mg99        O110   2.304       .  S
O100       Mg142   2.150       .  S
O100       Mg125   2.135       .  S
O100        C121   1.237       .  S
O101        C132   1.272       .  A
O101       Mg125   2.305       .  S
C102        O104   1.271       .  A
C102        O116   1.275       .  A
C102       C1153   1.471       .  S
O103        C131   1.273       .  A
O103       Mg105   2.309       .  S
O104       Mg136   2.263       .  S
Mg105       O111   2.136   1_554  S
Mg105       O119   2.258       .  S
Mg105       O107   2.313   1_554  S
C106        O144   1.273       .  A
C106        O112   1.275       .  A
C106       C1180   1.486       .  S
O107        C114   1.275       .  A
H108        C121   1.081       .  S
C109        O123   1.237       .  S
C109        O124   1.271       .  A
C109        H134   1.081       .  S
O110        C133   1.272       .  A
O111       Mg125   2.141       .  S
O112       Mg142   2.307       .  S
C113        O126   1.273       .  A
C113        O118   1.274       .  A
C113       C1132   1.490       .  S
C114        O141   1.271       .  A
C114       C1192   1.472       .  S
Mg115       O122   2.138   1_556  S
Mg115       O123   2.146   1_556  S
Mg115       O116   2.312   1_556  S
Mg115       O117   2.296       .  S
Mg115       O144   2.262       .  S
O117        C121   1.271       .  A
O118       Mg125   2.301       .  S
O119        C138   1.270       .  A
O120        C140   1.275       .  A
O120       Mg136   2.312       .  S
O122       Mg136   2.140       .  S
O122        C133   1.237       .  S
O123       Mg142   2.132   1_554  S
O124       Mg136   2.299       .  S
Mg125       O141   2.262       .  S
O126       Mg142   2.258       .  S
H127        C132   1.081       .  S
O128       Mg136   2.144       .  S
O128        C131   1.238       .  S
H129        C131   1.081       .  S
H130        C133   1.081       .  S
O135       Mg142   2.298       .  S
C138        O143   1.274       .  A
C138       C1144   1.471       .  S
O139        C140   1.271       .  A
C140       C1165   1.474       .  S
O145       Mg147   2.138   1_545  S
O145       Mg153   2.138   1_545  S
O145        C180   1.237       .  S
C146        O159   1.238       .  S
C146        O183   1.272       .  A
C146        H185   1.081   1_545  S
Mg147       O176   2.148       .  S
Mg147       O191   2.309       .  S
Mg147       O187   2.262       .  S
Mg147       O158   2.294       .  S
O148       Mg190   2.134       .  S
O148       Mg173   2.132       .  S
O148        C169   1.238       .  S
O149        C180   1.271       .  A
O149       Mg173   2.302       .  S
C150        O152   1.272       .  A
C150        O164   1.275       .  A
C150       C1093   1.475       .  S
O151        C179   1.272       .  A
O151       Mg153   2.304       .  S
O152       Mg184   2.258       .  S
Mg153       O159   2.147   1_565  S
Mg153       O167   2.275       .  S
Mg153       O155   2.327   1_565  S
C154        O192   1.271       .  A
C154        O160   1.274       .  A
C154       C1081   1.481       .  S
O155        C162   1.278       .  A
H156        C169   1.081       .  S
C157        O171   1.237   1_565  S
C157        O172   1.271       .  A
C157        H182   1.081       .  S
O158        C181   1.271       .  A
O159       Mg173   2.142       .  S
O160       Mg190   2.311       .  S
C161        O174   1.269       .  A
C161        O166   1.278       .  A
C161       C1105   1.493       .  S
C162        O189   1.270       .  A
C162       C1060   1.495       .  S
Mg163       O170   2.130   1_545  S
Mg163       O171   2.135       .  S
Mg163       O164   2.310   1_545  S
Mg163       O165   2.301       .  S
Mg163       O192   2.246       .  S
O165        C169   1.271       .  A
O166       Mg173   2.330       .  S
O167        C186   1.274       .  A
O168        C188   1.274       .  A
O168       Mg184   2.305       .  S
O170       Mg184   2.144       .  S
O170        C181   1.238       .  S
O171       Mg190   2.130       .  S
O172       Mg184   2.300       .  S
Mg173       O189   2.240       .  S
O174       Mg190   2.244       .  S
H175        C180   1.081       .  S
O176       Mg184   2.137       .  S
O176        C179   1.238       .  S
H177        C179   1.081       .  S
H178        C181   1.081   1_545  S
O183       Mg190   2.305       .  S
C186        O191   1.276       .  A
C186       C1120   1.480       .  S
O187        C188   1.272       .  A
C188       C1069   1.472       .  S
O193       Mg195   2.137   1_454  S
O193       Mg201   2.151   1_554  S
O193        C228   1.238       .  S
C194        O207   1.237       .  S
C194        O231   1.271       .  A
C194        H233   1.081       .  S
Mg195       O224   2.147   1_655  S
Mg195       O239   2.313   1_655  S
Mg195       O235   2.269       .  S
Mg195       O206   2.298       .  S
O196       Mg238   2.141       .  S
O196       Mg221   2.139   1_655  S
O196        C217   1.237       .  S
O197        C228   1.271       .  A
O197       Mg221   2.297       .  S
C198        O200   1.270       .  A
C198        O212   1.277       .  A
C198       C1033   1.494       .  S
O199        C227   1.270       .  A
O199       Mg201   2.293       .  S
O200       Mg232   2.256       .  S
Mg201       O207   2.136   1_556  S
Mg201       O215   2.263       .  S
Mg201       O203   2.301   1_556  S
C202        O240   1.272       .  A
C202        O208   1.276       .  A
C202       C1021   1.487       .  S
O203        C210   1.275       .  A
H204        C217   1.081       .  S
C205        O219   1.237       .  S
C205        O220   1.271       .  A
C205        H230   1.081       .  S
O206        C229   1.271       .  A
O207       Mg221   2.152       .  S
O208       Mg238   2.315       .  S
C209        O222   1.271       .  A
C209        O214   1.278       .  A
C209        C985   1.483       .  S
C210        O237   1.273       .  A
C210       C1000   1.474       .  S
Mg211       O218   2.133   1_554  S
Mg211       O219   2.140   1_554  S
Mg211       O212   2.308   1_554  S
Mg211       O213   2.302       .  S
Mg211       O240   2.261       .  S
O213        C217   1.271       .  A
O214       Mg221   2.327       .  S
O215        C234   1.274       .  A
O216        C236   1.274       .  A
O216       Mg232   2.295       .  S
O218       Mg232   2.147       .  S
O218        C229   1.238       .  S
O219       Mg238   2.131   1_556  S
O220       Mg232   2.298       .  S
Mg221       O237   2.262       .  S
O222       Mg238   2.244   1_455  S
H223        C228   1.081       .  S
O224       Mg232   2.126   1_455  S
O224        C227   1.236       .  S
H225        C227   1.081       .  S
H226        C229   1.081       .  S
O231       Mg238   2.298   1_455  S
C234        O239   1.276       .  A
C234       C1012   1.495       .  S
O235        C236   1.274       .  A
C236       C1045   1.493       .  S
O241       Mg243   2.137   1_445  S
O241       Mg249   2.140   1_455  S
O241        C276   1.238       .  S
C242        O255   1.237       .  S
C242        O279   1.270       .  A
C242        H281   1.081       .  S
Mg243       O272   2.151   1_565  S
Mg243       O287   2.322   1_565  S
Mg243       O283   2.256       .  S
Mg243       O254   2.297       .  S
O244       Mg286   2.142   1_565  S
O244       Mg269   2.132   1_565  S
O244        C265   1.237       .  S
O245        C276   1.272       .  A
O245       Mg269   2.303       .  S
C246        O248   1.273       .  A
C246        O260   1.276       .  A
C246        C937   1.486       .  S
O247        C275   1.271       .  A
O247       Mg249   2.298       .  S
O248       Mg280   2.261       .  S
Mg249       O255   2.127   1_655  S
Mg249       O263   2.248       .  S
Mg249       O251   2.306   1_655  S
C250        O288   1.274       .  A
C250        O256   1.273       .  A
C250        C961   1.488       .  S
O251        C258   1.276       .  A
H252        C265   1.081       .  S
C253        O267   1.237       .  S
C253        O268   1.270       .  A
C253        H278   1.081       .  S
O254        C277   1.271       .  A
O255       Mg269   2.142       .  S
O256       Mg286   2.291   1_565  S
C257        O270   1.270       .  A
C257        O262   1.277       .  A
C257        C913   1.486       .  S
C258        O285   1.271       .  A
C258        C925   1.492       .  S
Mg259       O266   2.136   1_455  S
Mg259       O267   2.145   1_455  S
Mg259       O260   2.307   1_455  S
Mg259       O261   2.297       .  S
Mg259       O288   2.271       .  S
O261        C265   1.271       .  A
O262       Mg269   2.321       .  S
O263        C282   1.271       .  A
O264        C284   1.275       .  A
O264       Mg280   2.306       .  S
O266       Mg280   2.150       .  S
O266        C277   1.237       .  S
O267       Mg286   2.127   1_665  S
O268       Mg280   2.296       .  S
Mg269       O285   2.255       .  S
O270       Mg286   2.240       .  S
H271        C276   1.081       .  S
O272       Mg280   2.138   1_545  S
O272        C275   1.237       .  S
H273        C275   1.081       .  S
H274        C277   1.081       .  S
O279       Mg286   2.295       .  S
C282        O287   1.277       .  A
C282        C949   1.481       .  S
O283        C284   1.272       .  A
C284        C973   1.470       .  S
O289       Mg291   2.142   1_544  S
O289       Mg297   2.151   1_545  S
O289        C324   1.238       .  S
C290        O303   1.237       .  S
C290        O327   1.270       .  A
C290        H329   1.081       .  S
Mg291       O320   2.149   1_556  S
Mg291       O335   2.308   1_556  S
Mg291       O331   2.265       .  S
Mg291       O302   2.297       .  S
O292       Mg334   2.140   1_556  S
O292       Mg317   2.134   1_556  S
O292        C313   1.237       .  S
O293        C324   1.272       .  A
O293       Mg317   2.303       .  S
C294        O296   1.272       .  A
C294        O308   1.275       .  A
C294        C877   1.475       .  S
O295        C323   1.270       .  A
O295       Mg297   2.293       .  S
O296       Mg328   2.261       .  S
Mg297       O303   2.128   1_565  S
Mg297       O311   2.249       .  S
Mg297       O299   2.298   1_565  S
C298        O336   1.273       .  A
C298        O304   1.272       .  A
C298        C892   1.489       .  S
O299        C306   1.275       .  A
H300        C313   1.081       .  S
C301        O315   1.237       .  S
C301        O316   1.270       .  A
C301        H326   1.081       .  S
O302        C325   1.271       .  A
O303       Mg317   2.144       .  S
O304       Mg334   2.288   1_556  S
C305        O318   1.269       .  A
C305        O310   1.278       .  A
C305        C841   1.488       .  S
C306        O333   1.273       .  A
C306        C853   1.484       .  S
Mg307       O314   2.130   1_545  S
Mg307       O315   2.148   1_545  S
Mg307       O308   2.307   1_545  S
Mg307       O309   2.300       .  S
Mg307       O336   2.264       .  S
O309        C313   1.271       .  A
O310       Mg317   2.331       .  S
O311        C330   1.271       .  A
O312        C332   1.275       .  A
O312       Mg328   2.306       .  S
O314       Mg328   2.151       .  S
O314        C325   1.237       .  S
O315       Mg334   2.128   1_566  S
O316       Mg328   2.292       .  S
Mg317       O333   2.259       .  S
O318       Mg334   2.238       .  S
H319        C324   1.081       .  S
O320       Mg328   2.132   1_554  S
O320        C323   1.237       .  S
H321        C323   1.081       .  S
H322        C325   1.081       .  S
O327       Mg334   2.295       .  S
C330        O335   1.275       .  A
C330        C865   1.469       .  S
O331        C332   1.272       .  A
C332        C901   1.469       .  S
O337       Mg339   2.138   1_546  S
O337       Mg345   2.154   1_545  S
O337        C372   1.237       .  S
C338        O351   1.237       .  S
C338        O375   1.271       .  A
C338        H377   1.081       .  S
Mg339       O368   2.150   1_554  S
Mg339       O383   2.302   1_554  S
Mg339       O379   2.270       .  S
Mg339       O350   2.301       .  S
O340       Mg382   2.152   1_554  S
O340       Mg365   2.130   1_554  S
O340        C361   1.237       .  S
O341        C372   1.271       .  A
O341       Mg365   2.297   1_455  S
C342        O344   1.272       .  A
C342        O356   1.275       .  A
C342        C829   1.482       .  S
O343        C371   1.271       .  A
O343       Mg345   2.298       .  S
O344       Mg376   2.264       .  S
Mg345       O351   2.137   1_465  S
Mg345       O359   2.259       .  S
Mg345       O347   2.322   1_565  S
C346        O384   1.269       .  A
C346        O352   1.279       .  A
C346        C769   1.495       .  S
O347        C354   1.277       .  A
H348        C361   1.081       .  S
C349        O363   1.238       .  S
C349        O364   1.272       .  A
C349        H374   1.081       .  S
O350        C373   1.271       .  A
O351       Mg365   2.145       .  S
O352       Mg382   2.329   1_554  S
C353        O366   1.273       .  A
C353        O358   1.275       .  A
C353        C817   1.474       .  S
C354        O381   1.273       .  A
C354        C793   1.492       .  S
Mg355       O362   2.131   1_655  S
Mg355       O363   2.141       .  S
Mg355       O356   2.310       .  S
Mg355       O357   2.295   1_565  S
Mg355       O384   2.239   1_565  S
O357        C361   1.270       .  A
O358       Mg365   2.308       .  S
O359        C378   1.272       .  A
O360        C380   1.276       .  A
O360       Mg376   2.309   1_455  S
O362       Mg376   2.136   1_455  S
O362        C373   1.236       .  S
O363       Mg382   2.142   1_564  S
O364       Mg376   2.305       .  S
Mg365       O381   2.253   1_655  S
O366       Mg382   2.270       .  S
H367        C372   1.081       .  S
O368       Mg376   2.138   1_456  S
O368        C371   1.238       .  S
H369        C371   1.081       .  S
H370        C373   1.081       .  S
O375       Mg382   2.296       .  S
C378        O383   1.275       .  A
C378        C805   1.472       .  S
O379        C380   1.273       .  A
C380        C781   1.482       .  S
O385       Mg387   2.140       .  S
O385       Mg393   2.141       .  S
O385        C420   1.237       .  S
C386        O399   1.237       .  S
C386        O423   1.271       .  A
C386        H425   1.081       .  S
Mg387       O416   2.148       .  S
Mg387       O431   2.318       .  S
Mg387       O427   2.260       .  S
Mg387       O398   2.294       .  S
O388       Mg430   2.145       .  S
O388       Mg413   2.135       .  S
O388        C409   1.237       .  S
O389        C420   1.271       .  A
O389       Mg413   2.299       .  S
C390        O392   1.272       .  A
C390        O404   1.275       .  A
C390       C1024   1.469       .  S
O391        C419   1.271       .  A
O391       Mg393   2.301       .  S
O392       Mg424   2.261       .  S
Mg393       O399   2.136       .  S
Mg393       O407   2.255       .  S
Mg393       O395   2.317       .  S
C394        O432   1.271       .  A
C394        O400   1.275       .  A
C394        C832   1.470       .  S
O395        C402   1.276       .  A
H396        C409   1.081       .  S
C397        O411   1.237       .  S
C397        O412   1.270       .  A
C397        H422   1.081       .  S
O398        C421   1.270       .  A
O399       Mg413   2.147       .  S
O400       Mg430   2.308       .  S
C401        O414   1.273       .  A
C401        O406   1.275       .  A
C401        C976   1.492       .  S
C402        O429   1.272       .  A
C402       C1072   1.487       .  S
Mg403       O410   2.132       .  S
Mg403       O411   2.148       .  S
Mg403       O404   2.309       .  S
Mg403       O405   2.297       .  S
Mg403       O432   2.258       .  S
O405        C409   1.271       .  A
O406       Mg413   2.310       .  S
O407        C426   1.272       .  A
O408        C428   1.276       .  A
O408       Mg424   2.309       .  S
O410       Mg424   2.150       .  S
O410        C421   1.237       .  S
O411       Mg430   2.131       .  S
O412       Mg424   2.295       .  S
Mg413       O429   2.254       .  S
O414       Mg430   2.252       .  S
H415        C420   1.081       .  S
O416       Mg424   2.138       .  S
O416        C419   1.237       .  S
H417        C419   1.081       .  S
H418        C421   1.081       .  S
O423       Mg430   2.300       .  S
C426        O431   1.276       .  A
C426       C1309   1.478       .  S
O427        C428   1.273       .  A
C428       C1156   1.481       .  S
O433       Mg435   2.128       .  S
O433       Mg441   2.146       .  S
O433        C468   1.237       .  S
C434        O447   1.238       .  S
C434        O471   1.271       .  A
C434        H473   1.081       .  S
Mg435       O464   2.140       .  S
Mg435       O479   2.315       .  S
Mg435       O475   2.261       .  S
Mg435       O446   2.304       .  S
O436       Mg478   2.148       .  S
O436       Mg461   2.141       .  S
O436        C457   1.237       .  S
O437        C468   1.270       .  A
O437       Mg461   2.293       .  S
C438        O440   1.269       .  A
C438        O452   1.277       .  A
C438       C1084   1.488       .  S
O439        C467   1.270       .  A
O439       Mg441   2.296       .  S
O440       Mg472   2.235       .  S
Mg441       O447   2.141       .  S
Mg441       O455   2.269       .  S
Mg441       O443   2.294       .  S
C442        O480   1.273       .  A
C442        O448   1.276       .  A
C442       C1288   1.473       .  S
O443        C450   1.274       .  A
H444        C457   1.081       .  S
C445        O459   1.237       .  S
C445        O460   1.271       .  A
C445        H470   1.081       .  S
O446        C469   1.272       .  A
O447       Mg461   2.158       .  S
O448       Mg478   2.315       .  S
C449        O462   1.272       .  A
C449        O454   1.276       .  A
C449       C1237   1.478       .  S
C450        O477   1.274       .  A
C450       C1048   1.481       .  S
Mg451       O458   2.144       .  S
Mg451       O459   2.140       .  S
Mg451       O452   2.327       .  S
Mg451       O453   2.305       .  S
Mg451       O480   2.270       .  S
O453        C457   1.272       .  A
O454       Mg461   2.308       .  S
O455        C474   1.273       .  A
O456        C476   1.273       .  A
O456       Mg472   2.294       .  S
O458       Mg472   2.141       .  S
O458        C469   1.238       .  S
O459       Mg478   2.131       .  S
O460       Mg472   2.297       .  S
Mg461       O477   2.267       .  S
O462       Mg478   2.258       .  S
H463        C468   1.081       .  S
O464       Mg472   2.127       .  S
O464        C467   1.236       .  S
H465        C467   1.081       .  S
H466        C469   1.081       .  S
O471       Mg478   2.297       .  S
C474        O479   1.277       .  A
C474        C820   1.484       .  S
O475        C476   1.272       .  A
C476        C889   1.490       .  S
O481       Mg483   2.132       .  S
O481       Mg489   2.145       .  S
O481        C516   1.237       .  S
C482        O495   1.237       .  S
C482        O519   1.271       .  A
C482        H521   1.081       .  S
Mg483       O512   2.145       .  S
Mg483       O527   2.313       .  S
Mg483       O523   2.266       .  S
Mg483       O494   2.300       .  S
O484       Mg526   2.142       .  S
O484       Mg509   2.133       .  S
O484        C505   1.237       .  S
O485        C516   1.271       .  A
O485       Mg509   2.297       .  S
C486        O488   1.272       .  A
C486        O500   1.274       .  A
C486       C1129   1.492       .  S
O487        C515   1.270       .  A
O487       Mg489   2.296       .  S
O488       Mg520   2.257       .  S
Mg489       O495   2.129       .  S
Mg489       O503   2.253       .  S
Mg489       O491   2.302       .  S
C490        O528   1.271       .  A
C490        O496   1.275       .  A
C490        C904   1.470       .  S
O491        C498   1.274       .  A
H492        C505   1.081       .  S
C493        O507   1.237       .  S
C493        O508   1.271       .  A
C493        H518   1.081       .  S
O494        C517   1.271       .  A
O495       Mg509   2.144       .  S
O496       Mg526   2.308       .  S
C497        O510   1.272       .  A
C497        O502   1.276       .  A
C497        C808   1.483       .  S
C498        O525   1.274       .  A
C498        C964   1.495       .  S
Mg499       O506   2.135       .  S
Mg499       O507   2.142       .  S
Mg499       O500   2.299       .  S
Mg499       O501   2.301       .  S
Mg499       O528   2.260       .  S
O501        C505   1.271       .  A
O502       Mg509   2.305       .  S
O503        C522   1.271       .  A
O504        C524   1.274       .  A
O504       Mg520   2.301       .  S
O506       Mg520   2.148       .  S
O506        C517   1.237       .  S
O507       Mg526   2.134       .  S
O508       Mg520   2.298       .  S
Mg509       O525   2.266       .  S
O510       Mg526   2.259       .  S
H511        C516   1.081       .  S
O512       Mg520   2.129       .  S
O512        C515   1.237       .  S
H513        C515   1.081       .  S
H514        C517   1.081       .  S
O519       Mg526   2.299       .  S
C522        O527   1.277       .  A
C522       C1228   1.494       .  S
O523        C524   1.274       .  A
C524       C1321   1.495       .  S
O529       Mg531   2.135       .  S
O529       Mg537   2.137       .  S
O529        C564   1.237       .  S
C530        O543   1.237       .  S
C530        O567   1.270       .  A
C530        H569   1.081       .  S
Mg531       O560   2.141       .  S
Mg531       O575   2.325       .  S
Mg531       O571   2.247       .  S
Mg531       O542   2.302       .  S
O532       Mg574   2.150       .  S
O532       Mg557   2.138       .  S
O532        C553   1.238       .  S
O533        C564   1.271       .  A
O533       Mg557   2.301       .  S
C534        O536   1.271       .  A
C534        O548   1.275       .  A
C534       C1108   1.471       .  S
O535        C563   1.272       .  A
O535       Mg537   2.302       .  S
O536       Mg568   2.261       .  S
Mg537       O543   2.131       .  S
Mg537       O551   2.246       .  S
Mg537       O539   2.314       .  S
C538        O576   1.272       .  A
C538        O544   1.275       .  A
C538       C1300   1.471       .  S
O539        C546   1.275       .  A
H540        C553   1.081       .  S
C541        O555   1.237       .  S
C541        O556   1.271       .  A
C541        H566   1.081       .  S
O542        C565   1.271       .  A
O543       Mg557   2.144       .  S
O544       Mg574   2.311       .  S
C545        O558   1.272       .  A
C545        O550   1.275       .  A
C545       C1189   1.479       .  S
C546        O573   1.272       .  A
C546       C1009   1.473       .  S
Mg547       O554   2.137       .  S
Mg547       O555   2.143       .  S
Mg547       O548   2.314       .  S
Mg547       O549   2.302       .  S
Mg547       O576   2.260       .  S
O549        C553   1.272       .  A
O550       Mg557   2.306       .  S
O551        C570   1.271       .  A
O552        C572   1.275       .  A
O552       Mg568   2.313       .  S
O554       Mg568   2.148       .  S
O554        C565   1.237       .  S
O555       Mg574   2.139       .  S
O556       Mg568   2.298       .  S
Mg557       O573   2.262       .  S
O558       Mg574   2.261       .  S
H559        C564   1.081       .  S
O560       Mg568   2.141       .  S
O560        C563   1.238       .  S
H561        C563   1.081       .  S
H562        C565   1.081       .  S
O567       Mg574   2.294       .  S
C570        O575   1.276       .  A
C570        C796   1.484       .  S
O571        C572   1.272       .  A
C572        C916   1.485       .  S
O577       Mg579   2.128       .  S
O577       Mg585   2.147       .  S
O577        C612   1.237       .  S
C578        O591   1.237       .  S
C578        O615   1.271       .  A
C578        H617   1.081       .  S
Mg579       O608   2.146       .  S
Mg579       O623   2.307       .  S
Mg579       O619   2.244       .  S
Mg579       O590   2.298       .  S
O580       Mg622   2.146       .  S
O580       Mg605   2.133       .  S
O580        C601   1.237       .  S
O581        C612   1.270       .  A
O581       Mg605   2.294       .  S
C582        O584   1.272       .  A
C582        O596   1.276       .  A
C582       C1117   1.488       .  S
O583        C611   1.271       .  A
O583       Mg585   2.297       .  S
O584       Mg616   2.267       .  S
Mg585       O591   2.138       .  S
Mg585       O599   2.263       .  S
Mg585       O587   2.317       .  S
C586        O624   1.269       .  A
C586        O592   1.277       .  A
C586        C868   1.492       .  S
O587        C594   1.276       .  A
H588        C601   1.081       .  S
C589        O603   1.238       .  S
C589        O604   1.272       .  A
C589        H614   1.081       .  S
O590        C613   1.271       .  A
O591       Mg605   2.146       .  S
O592       Mg622   2.324       .  S
C593        O606   1.272       .  A
C593        O598   1.276       .  A
C593        C784   1.472       .  S
C594        O621   1.274       .  A
C594        C988   1.490       .  S
Mg595       O602   2.128       .  S
Mg595       O603   2.137       .  S
Mg595       O596   2.312       .  S
Mg595       O597   2.300       .  S
Mg595       O624   2.238       .  S
O597        C601   1.271       .  A
O598       Mg605   2.314       .  S
O599        C618   1.273       .  A
O600        C620   1.276       .  A
O600       Mg616   2.316       .  S
O602       Mg616   2.137       .  S
O602        C613   1.237       .  S
O603       Mg622   2.142       .  S
O604       Mg616   2.305       .  S
Mg605       O621   2.253       .  S
O606       Mg622   2.262       .  S
H607        C612   1.081       .  S
O608       Mg616   2.139       .  S
O608        C611   1.238       .  S
H609        C611   1.081       .  S
H610        C613   1.081       .  S
O615       Mg622   2.298       .  S
C618        O623   1.275       .  A
C618       C1249   1.481       .  S
O619        C620   1.272       .  A
C620       C1276   1.480       .  S
O625       Mg627   2.125       .  S
O625       Mg633   2.146       .  S
O625        C660   1.237       .  S
C626        O639   1.237       .  S
C626        O663   1.271       .  A
C626        H665   1.081       .  S
Mg627       O656   2.150       .  S
Mg627       O671   2.307       .  S
Mg627       O667   2.238       .  S
Mg627       O638   2.297       .  S
O628       Mg670   2.139       .  S
O628       Mg653   2.136       .  S
O628        C649   1.237       .  S
O629        C660   1.270       .  A
O629       Mg653   2.295       .  S
C630        O632   1.272       .  A
C630        O644   1.275       .  A
C630       C1264   1.477       .  S
O631        C659   1.271       .  A
O631       Mg633   2.296       .  S
O632       Mg664   2.261       .  S
Mg633       O639   2.133       .  S
Mg633       O647   2.256       .  S
Mg633       O635   2.318       .  S
C634        O672   1.272       .  A
C634        O640   1.276       .  A
C634        C952   1.493       .  S
O635        C642   1.276       .  A
H636        C649   1.081       .  S
C637        O651   1.238       .  S
C637        O652   1.272       .  A
C637        H662   1.081       .  S
O638        C661   1.271       .  A
O639       Mg653   2.136       .  S
O640       Mg670   2.320       .  S
C641        O654   1.272       .  A
C641        O646   1.274       .  A
C641        C772   1.473       .  S
C642        O669   1.272       .  A
C642        C844   1.484       .  S
Mg643       O650   2.135       .  S
Mg643       O651   2.140       .  S
Mg643       O644   2.316       .  S
Mg643       O645   2.301       .  S
Mg643       O672   2.249       .  S
O645        C649   1.271       .  A
O646       Mg653   2.309       .  S
O647        C666   1.272       .  A
O648        C668   1.277       .  A
O648       Mg664   2.325       .  S
O650       Mg664   2.138       .  S
O650        C661   1.237       .  S
O651       Mg670   2.141       .  S
O652       Mg664   2.307       .  S
Mg653       O669   2.247       .  S
O654       Mg670   2.261       .  S
H655        C660   1.081       .  S
O656       Mg664   2.139       .  S
O656        C659   1.238       .  S
H657        C659   1.081       .  S
H658        C661   1.081       .  S
O663       Mg670   2.302       .  S
C666        O671   1.275       .  A
C666       C1168   1.473       .  S
O667        C668   1.270       .  A
C668       C1336   1.489       .  S
O673       Mg675   2.136       .  S
O673       Mg681   2.143       .  S
O673        C708   1.237       .  S
C674        O687   1.237       .  S
C674        O711   1.270       .  A
C674        H713   1.081       .  S
Mg675       O704   2.146       .  S
Mg675       O719   2.304       .  S
Mg675       O715   2.257       .  S
Mg675       O686   2.299       .  S
O676       Mg718   2.149       .  S
O676       Mg701   2.133       .  S
O676        C697   1.238       .  S
O677        C708   1.271       .  A
O677       Mg701   2.299       .  S
C678        O680   1.272       .  A
C678        O692   1.275       .  A
C678       C1204   1.474       .  S
O679        C707   1.271       .  A
O679       Mg681   2.301       .  S
O680       Mg712   2.264       .  S
Mg681       O687   2.130       .  S
Mg681       O695   2.260       .  S
Mg681       O683   2.298       .  S
C682        O720   1.271       .  A
C682        O688   1.276       .  A
C682        C928   1.487       .  S
O683        C690   1.274       .  A
H684        C697   1.081       .  S
C685        O699   1.237       .  S
C685        O700   1.271       .  A
C685        H710   1.081       .  S
O686        C709   1.271       .  A
O687       Mg701   2.152       .  S
O688       Mg718   2.303       .  S
C689        O702   1.272       .  A
C689        O694   1.276       .  A
C689       C1057   1.473       .  S
C690        O717   1.274       .  A
C690        C856   1.493       .  S
Mg691       O698   2.133       .  S
Mg691       O699   2.139       .  S
Mg691       O692   2.309       .  S
Mg691       O693   2.298       .  S
Mg691       O720   2.254       .  S
O693        C697   1.271       .  A
O694       Mg701   2.314       .  S
O695        C714   1.270       .  A
O696        C716   1.275       .  A
O696       Mg712   2.303       .  S
O698       Mg712   2.141       .  S
O698        C709   1.237       .  S
O699       Mg718   2.131       .  S
O700       Mg712   2.300       .  S
Mg701       O717   2.262       .  S
O702       Mg718   2.251       .  S
H703        C708   1.081       .  S
O704       Mg712   2.137       .  S
O704        C707   1.238       .  S
H705        C707   1.081       .  S
H706        C709   1.081       .  S
O711       Mg718   2.292       .  S
C714        O719   1.274       .  A
C714       C1141   1.468       .  S
O715        C716   1.271       .  A
C716        C997   1.486       .  S
O721       Mg723   2.125       .  S
O721       Mg729   2.149       .  S
O721        C756   1.237       .  S
C722        O735   1.237       .  S
C722        O759   1.270       .  A
C722        H761   1.081       .  S
Mg723       O752   2.147       .  S
Mg723       O767   2.299       .  S
Mg723       O763   2.237       .  S
Mg723       O734   2.299       .  S
O724       Mg766   2.150       .  S
O724       Mg749   2.132       .  S
O724        C745   1.237       .  S
O725        C756   1.270       .  A
O725       Mg749   2.292       .  S
C726        O728   1.273       .  A
C726        O740   1.278       .  A
C726        C880   1.488       .  S
O727        C755   1.272       .  A
O727       Mg729   2.301       .  S
O728       Mg760   2.267       .  S
Mg729       O735   2.123       .  S
Mg729       O743   2.257       .  S
Mg729       O731   2.315       .  S
C730        O768   1.274       .  A
C730        O736   1.275       .  A
C730       C1177   1.496       .  S
O731        C738   1.277       .  A
H732        C745   1.081       .  S
C733        O747   1.237       .  S
C733        O748   1.271       .  A
C733        H758   1.081       .  S
O734        C757   1.271       .  A
O735       Mg749   2.147       .  S
O736       Mg766   2.301       .  S
C737        O750   1.273       .  A
C737        O742   1.275       .  A
C737       C1036   1.482       .  S
C738        O765   1.272       .  A
C738       C1216   1.488       .  S
Mg739       O746   2.138       .  S
Mg739       O747   2.147       .  S
Mg739       O740   2.314       .  S
Mg739       O741   2.297       .  S
Mg739       O768   2.272       .  S
O741        C745   1.271       .  A
O742       Mg749   2.295       .  S
O743        C762   1.272       .  A
O744        C764   1.278       .  A
O744       Mg760   2.328       .  S
O746       Mg760   2.146       .  S
O746        C757   1.237       .  S
O747       Mg766   2.136       .  S
O748       Mg760   2.302       .  S
Mg749       O765   2.260       .  S
O750       Mg766   2.264       .  S
H751        C756   1.081       .  S
O752       Mg760   2.144       .  S
O752        C755   1.238       .  S
H753        C755   1.081       .  S
H754        C757   1.081       .  S
O759       Mg766   2.291       .  S
C762        O767   1.274       .  A
C762        C940   1.473       .  S
O763        C764   1.269       .  A
C764       C1096   1.495       .  S
C769        C770   1.410       .  A
C769        C774   1.423       .  A
C770        H775   1.084       .  S
C770        C771   1.404       .  A
C771        C772   1.409       .  A
C771        C778   1.444       .  S
C772        C773   1.397       .  A
C773        H776   1.085       .  S
C773        C774   1.397       .  A
C774        C777   1.445       .  S
C777        N779   1.157       .  T
C778        N780   1.157       .  T
C781        C782   1.406       .  A
C781        C786   1.415       .  A
C782        H787   1.085       .  S
C782        C783   1.401       .  A
C783        C784   1.408       .  A
C783        C790   1.443       .  S
C784        C785   1.401       .  A
C785        H788   1.085       .  S
C785        C786   1.402       .  A
C786        C789   1.444       .  S
C789        N791   1.157       .  T
C790        N792   1.157       .  T
C793        C794   1.407       .  A
C793        C798   1.418       .  A
C794        H799   1.085       .  S
C794        C795   1.396       .  A
C795        C796   1.412       .  A
C795        C802   1.445       .  S
C796        C797   1.406       .  A
C797        H800   1.085       .  S
C797        C798   1.406       .  A
C798        C801   1.444       .  S
C801        N803   1.158       .  T
C802        N804   1.157       .  T
C805        C806   1.401       .  A
C805        C810   1.408       .  A
C806        H811   1.085       .  S
C806        C807   1.400       .  A
C807        C808   1.416       .  A
C807        C814   1.445       .  S
C808        C809   1.407       .  A
C809        H812   1.085       .  S
C809        C810   1.400       .  A
C810        C813   1.444       .  S
C813        N815   1.157       .  T
C814        N816   1.157       .  T
C817        C818   1.401       .  A
C817        C822   1.409       .  A
C818        H823   1.085       .  S
C818        C819   1.403       .  A
C819        C820   1.415       .  A
C819        C826   1.444       .  S
C820        C821   1.406       .  A
C821        H824   1.085       .  S
C821        C822   1.401       .  A
C822        C825   1.444       .  S
C825        N827   1.157       .  T
C826        N828   1.157       .  T
C829        C830   1.406       .  A
C829        C834   1.415       .  A
C830        H835   1.085       .  S
C830        C831   1.401       .  A
C831        C832   1.408       .  A
C831        C838   1.444       .  S
C832        C833   1.399       .  A
C833        H836   1.085       .  S
C833        C834   1.401       .  A
C834        C837   1.443       .  S
C837        N839   1.157   1_655  T
C838        N840   1.157       .  T
C841        C842   1.407       .  A
C841        C846   1.418       .  A
C842        H847   1.084       .  S
C842        C843   1.406       .  A
C843        C844   1.415       .  A
C843        C850   1.444       .  S
C844        C845   1.402       .  A
C845        H848   1.085       .  S
C845        C846   1.395       .  A
C846        C849   1.445       .  S
C849        N851   1.157       .  T
C850        N852   1.157       .  T
C853        C854   1.403       .  A
C853        C858   1.413       .  A
C854        H859   1.085       .  S
C854        C855   1.399       .  A
C855        C856   1.419       .  A
C855        C862   1.445       .  S
C856        C857   1.408       .  A
C857        H860   1.084       .  S
C857        C858   1.400       .  A
C858        C861   1.445       .  S
C861        N863   1.157       .  T
C862        N864   1.157       .  T
C865        C866   1.396       .  A
C865        C870   1.407       .  A
C866        H871   1.086       .  S
C866        C867   1.395       .  A
C867        C868   1.421       .  A
C867        C874   1.445       .  S
C868        C869   1.411       .  A
C869        H872   1.084       .  S
C869        C870   1.404       .  A
C870        C873   1.443       .  S
C873        N875   1.157       .  T
C874        N876   1.157       .  T
C877        C878   1.400       .  A
C877        C882   1.409       .  A
C878        H883   1.085       .  S
C878        C879   1.402       .  A
C879        C880   1.417       .  A
C879        C886   1.444       .  S
C880        C881   1.407       .  A
C881        H884   1.085       .  S
C881        C882   1.401       .  A
C882        C885   1.445       .  S
C885        N887   1.157       .  T
C886        N888   1.157       .  T
C889        C890   1.406       .  A
C889        C894   1.417       .  A
C890        H895   1.085       .  S
C890        C891   1.400       .  A
C891        C892   1.417       .  A
C891        C898   1.444       .  S
C892        C893   1.405       .  A
C893        H896   1.085       .  S
C893        C894   1.399       .  A
C894        C897   1.443       .  S
C897        N899   1.157       .  T
C898        N900   1.157       .  T
C901        C902   1.401       .  A
C901        C906   1.409       .  A
C902        H907   1.085       .  S
C902        C903   1.400       .  A
C903        C904   1.410       .  A
C903        C910   1.444       .  S
C904        C905   1.402       .  A
C905        H908   1.085       .  S
C905        C906   1.401       .  A
C906        C909   1.444       .  S
C909        N911   1.157       .  T
C910        N912   1.157       .  T
C913        C914   1.406       .  A
C913        C918   1.416       .  A
C914        H919   1.085       .  S
C914        C915   1.405       .  A
C915        C916   1.416       .  A
C915        C922   1.444       .  S
C916        C917   1.403       .  A
C917        H920   1.085       .  S
C917        C918   1.395       .  A
C918        C921   1.445       .  S
C921        N923   1.157       .  T
C922        N924   1.157       .  T
C925        C926   1.407       .  A
C925        C930   1.419       .  A
C926        H931   1.085       .  S
C926        C927   1.400       .  A
C927        C928   1.415       .  A
C927        C934   1.445       .  S
C928        C929   1.405       .  A
C929        H932   1.085       .  S
C929        C930   1.400       .  A
C930        C933   1.445       .  S
C933        N935   1.157       .  T
C934        N936   1.157       .  T
C937        C938   1.407       .  A
C937        C942   1.417       .  A
C938        H943   1.085       .  S
C938        C939   1.400       .  A
C939        C940   1.409       .  A
C939        C946   1.445       .  S
C940        C941   1.401       .  A
C941        H944   1.085       .  S
C941        C942   1.401       .  A
C942        C945   1.444       .  S
C945        N947   1.157       .  T
C946        N948   1.157       .  T
C949        C950   1.404       .  A
C949        C954   1.411       .  A
C950        H955   1.085       .  S
C950        C951   1.406       .  A
C951        C952   1.420       .  A
C951        C958   1.444       .  S
C952        C953   1.407       .  A
C953        H956   1.085       .  S
C953        C954   1.396       .  A
C954        C957   1.446       .  S
C957        N959   1.157       .  T
C958        N960   1.157       .  T
C961        C962   1.403       .  A
C961        C966   1.415       .  A
C962        H967   1.085       .  S
C962        C963   1.400       .  A
C963        C964   1.419       .  A
C963        C970   1.443       .  S
C964        C965   1.408       .  A
C965        H968   1.084       .  S
C965        C966   1.400       .  A
C966        C969   1.444       .  S
C969        N971   1.157       .  T
C970        N972   1.157       .  T
C973        C974   1.400       .  A
C973        C978   1.406       .  A
C974        H979   1.085       .  S
C974        C975   1.405       .  A
C975        C976   1.421       .  A
C975        C982   1.444       .  S
C976        C977   1.409       .  A
C977        H980   1.084       .  S
C977        C978   1.396       .  A
C978        C981   1.445       .  S
C981        N983   1.157       .  T
C982        N984   1.158       .  T
C985        C986   1.404       .  A
C985        C990   1.413       .  A
C986        H991   1.085       .  S
C986        C987   1.406       .  A
C987        C988   1.419       .  A
C987        C994   1.444       .  S
C988        C989   1.405       .  A
C989        H992   1.085       .  S
C989        C990   1.395       .  A
C990        C993   1.446       .  S
C993        N995   1.157       .  T
C994        N996   1.158       .  T
C997        C998   1.407       .  A
C997       C1002   1.417       .  A
C998       H1003   1.085       .  S
C998        C999   1.399       .  A
C999       C1000   1.409       .  A
C999       C1006   1.444       .  S
C1000      C1001   1.401       .  A
C1001      H1004   1.085       .  S
C1001      C1002   1.401       .  A
C1002      C1005   1.444       .  S
C1005      N1007   1.157       .  T
C1006      N1008   1.157       .  T
C1009      C1010   1.401       .  A
C1009      C1014   1.406       .  A
C1010      H1015   1.085       .  S
C1010      C1011   1.404       .  A
C1011      C1012   1.421       .  A
C1011      C1018   1.444       .  S
C1012      C1013   1.410       .  A
C1013      H1016   1.084       .  S
C1013      C1014   1.399       .  A
C1014      C1017   1.444       .  S
C1017      N1019   1.157       .  T
C1018      N1020   1.158       .  T
C1021      C1022   1.408       .  A
C1021      C1026   1.417       .  A
C1022      H1027   1.085       .  S
C1022      C1023   1.402       .  A
C1023      C1024   1.408       .  A
C1023      C1030   1.444       .  S
C1024      C1025   1.398       .  A
C1025      H1028   1.085       .  S
C1025      C1026   1.400       .  A
C1026      C1029   1.443       .  S
C1029      N1031   1.157   1_554  T
C1030      N1032   1.157       .  T
C1033      C1034   1.408       .  A
C1033      C1038   1.420       .  A
C1034      H1039   1.082       .  S
C1034      C1035   1.399       .  A
C1035      C1036   1.411       .  A
C1035      C1042   1.445       .  S
C1036      C1037   1.403       .  A
C1037      H1040   1.085       .  S
C1037      C1038   1.401       .  A
C1038      C1041   1.444       .  S
C1041      N1043   1.157       .  T
C1042      N1044   1.157       .  T
C1045      C1046   1.408       .  A
C1045      C1050   1.420       .  A
C1046      H1051   1.084       .  S
C1046      C1047   1.401       .  A
C1047      C1048   1.412       .  A
C1047      C1054   1.444       .  S
C1048      C1049   1.402       .  A
C1049      H1052   1.085       .  S
C1049      C1050   1.400       .  A
C1050      C1053   1.444       .  S
C1053      N1055   1.157       .  T
C1054      N1056   1.157       .  T
C1057      C1058   1.398       .  A
C1057      C1062   1.408       .  A
C1058      H1063   1.086       .  S
C1058      C1059   1.396       .  A
C1059      C1060   1.422       .  A
C1059      C1066   1.445       .  S
C1060      C1061   1.411       .  A
C1061      H1064   1.084       .  S
C1061      C1062   1.405       .  A
C1062      C1065   1.443       .  S
C1065      N1067   1.157       .  T
C1066      N1068   1.158       .  T
C1069      C1070   1.402       .  A
C1069      C1074   1.408       .  A
C1070      H1075   1.085       .  S
C1070      C1071   1.405       .  A
C1071      C1072   1.417       .  A
C1071      C1078   1.444       .  S
C1072      C1073   1.406       .  A
C1073      H1076   1.085       .  S
C1073      C1074   1.397       .  A
C1074      C1077   1.445       .  S
C1077      N1079   1.157       .  T
C1078      N1080   1.157       .  T
C1081      C1082   1.400       .  A
C1081      C1086   1.414       .  A
C1082      H1087   1.085       .  S
C1082      C1083   1.395       .  A
C1083      C1084   1.419       .  A
C1083      C1090   1.445       .  S
C1084      C1085   1.407       .  A
C1085      H1088   1.084       .  S
C1085      C1086   1.404       .  A
C1086      C1089   1.444       .  S
C1089      N1091   1.157       .  T
C1090      N1092   1.157       .  T
C1093      C1094   1.398       .  A
C1093      C1098   1.410       .  A
C1094      H1099   1.086       .  S
C1094      C1095   1.397       .  A
C1095      C1096   1.423       .  A
C1095      C1102   1.445       .  S
C1096      C1097   1.409       .  A
C1097      H1100   1.083       .  S
C1097      C1098   1.403       .  A
C1098      C1101   1.444       .  S
C1101      N1103   1.157       .  T
C1102      N1104   1.157       .  T
C1105      C1106   1.410       .  A
C1105      C1110   1.421       .  A
C1106      H1111   1.084       .  S
C1106      C1107   1.405       .  A
C1107      C1108   1.407       .  A
C1107      C1114   1.443       .  S
C1108      C1109   1.397       .  A
C1109      H1112   1.086       .  S
C1109      C1110   1.398       .  A
C1110      C1113   1.445       .  S
C1113      N1115   1.157       .  T
C1114      N1116   1.157       .  T
C1117      C1118   1.407       .  A
C1117      C1122   1.416       .  A
C1118      H1123   1.085       .  S
C1118      C1119   1.402       .  A
C1119      C1120   1.411       .  A
C1119      C1126   1.444       .  S
C1120      C1121   1.403       .  A
C1121      H1124   1.085       .  S
C1121      C1122   1.401       .  A
C1122      C1125   1.444       .  S
C1125      N1127   1.157       .  T
C1126      N1128   1.157       .  T
C1129      C1130   1.407       .  A
C1129      C1134   1.417       .  A
C1130      H1135   1.085       .  S
C1130      C1131   1.400       .  A
C1131      C1132   1.416       .  A
C1131      C1138   1.445       .  S
C1132      C1133   1.406       .  A
C1133      H1136   1.085       .  S
C1133      C1134   1.400       .  A
C1134      C1137   1.445       .  S
C1137      N1139   1.157       .  T
C1138      N1140   1.157       .  T
C1141      C1142   1.401       .  A
C1141      C1146   1.409       .  A
C1142      H1147   1.085       .  S
C1142      C1143   1.401       .  A
C1143      C1144   1.410       .  A
C1143      C1150   1.444       .  S
C1144      C1145   1.402       .  A
C1145      H1148   1.085       .  S
C1145      C1146   1.400       .  A
C1146      C1149   1.444       .  S
C1149      N1151   1.157       .  T
C1150      N1152   1.157       .  T
C1153      C1154   1.402       .  A
C1153      C1158   1.408       .  A
C1154      H1159   1.085       .  S
C1154      C1155   1.403       .  A
C1155      C1156   1.414       .  A
C1155      C1162   1.444       .  S
C1156      C1157   1.405       .  A
C1157      H1160   1.085       .  S
C1157      C1158   1.399       .  A
C1158      C1161   1.444       .  S
C1161      N1163   1.157       .  T
C1162      N1164   1.157       .  T
C1165      C1166   1.402       .  A
C1165      C1170   1.412       .  A
C1166      H1171   1.085       .  S
C1166      C1167   1.400       .  A
C1167      C1168   1.411       .  A
C1167      C1174   1.444       .  S
C1168      C1169   1.402       .  A
C1169      H1172   1.085       .  S
C1169      C1170   1.402       .  A
C1170      C1173   1.444       .  S
C1173      N1175   1.157       .  T
C1174      N1176   1.157       .  T
C1177      C1178   1.409       .  A
C1177      C1182   1.420       .  A
C1178      H1183   1.084       .  S
C1178      C1179   1.402       .  A
C1179      C1180   1.413       .  A
C1179      C1186   1.444       .  S
C1180      C1181   1.403       .  A
C1181      H1184   1.085       .  S
C1181      C1182   1.401       .  A
C1182      C1185   1.445       .  S
C1185      N1187   1.157       .  T
C1186      N1188   1.157       .  T
C1189      C1190   1.404       .  A
C1189      C1194   1.413       .  A
C1190      H1195   1.085       .  S
C1190      C1191   1.400       .  A
C1191      C1192   1.409       .  A
C1191      C1198   1.444       .  S
C1192      C1193   1.402       .  A
C1193      H1196   1.085       .  S
C1193      C1194   1.403       .  A
C1194      C1197   1.444       .  S
C1197      N1199   1.157       .  T
C1198      N1200   1.157       .  T
C1201      C1202   1.401       .  A
C1201      C1206   1.409       .  A
C1202      H1207   1.085       .  S
C1202      C1203   1.402       .  A
C1203      C1204   1.411       .  A
C1203      C1210   1.444       .  S
C1204      C1205   1.403       .  A
C1205      H1208   1.085       .  S
C1205      C1206   1.400       .  A
C1206      C1209   1.444       .  S
C1209      N1211   1.157       .  T
C1210      N1212   1.157       .  T
C1213      C1214   1.408       .  A
C1213      C1218   1.421       .  A
C1214      H1219   1.084       .  S
C1214      C1215   1.401       .  A
C1215      C1216   1.415       .  A
C1215      C1222   1.445       .  S
C1216      C1217   1.403       .  A
C1217      H1220   1.085       .  S
C1217      C1218   1.402       .  A
C1218      C1221   1.445       .  S
C1221      N1223   1.158       .  T
C1222      N1224   1.157       .  T
C1225      C1226   1.403       .  A
C1225      C1230   1.414       .  A
C1226      H1231   1.085       .  S
C1226      C1227   1.399       .  A
C1227      C1228   1.420       .  A
C1227      C1234   1.444       .  S
C1228      C1229   1.408       .  A
C1229      H1232   1.084       .  S
C1229      C1230   1.400       .  A
C1230      C1233   1.445       .  S
C1233      N1235   1.157       .  T
C1234      N1236   1.158       .  T
C1237      C1238   1.402       .  A
C1237      C1242   1.409       .  A
C1238      H1243   1.085       .  S
C1238      C1239   1.400       .  A
C1239      C1240   1.419       .  A
C1239      C1246   1.445       .  S
C1240      C1241   1.409       .  A
C1241      H1244   1.084       .  S
C1241      C1242   1.401       .  A
C1242      C1245   1.444       .  S
C1245      N1247   1.157       .  T
C1246      N1248   1.158       .  T
C1249      C1250   1.404       .  A
C1249      C1254   1.414       .  A
C1250      H1255   1.085       .  S
C1250      C1251   1.399       .  A
C1251      C1252   1.409       .  A
C1251      C1258   1.444       .  S
C1252      C1253   1.402       .  A
C1253      H1256   1.085       .  S
C1253      C1254   1.404       .  A
C1254      C1257   1.444       .  S
C1257      N1259   1.157       .  T
C1258      N1260   1.157       .  T
C1261      C1262   1.410       .  A
C1261      C1266   1.423       .  A
C1262      H1267   1.084       .  S
C1262      C1263   1.405       .  A
C1263      C1264   1.410       .  A
C1263      C1270   1.444       .  S
C1264      C1265   1.398       .  A
C1265      H1268   1.085       .  S
C1265      C1266   1.398       .  A
C1266      C1269   1.445       .  S
C1269      N1271   1.157       .  T
C1270      N1272   1.157       .  T
C1273      C1274   1.408       .  A
C1273      C1278   1.417       .  A
C1274      H1279   1.084       .  S
C1274      C1275   1.405       .  A
C1275      C1276   1.413       .  A
C1275      C1282   1.444       .  S
C1276      C1277   1.401       .  A
C1277      H1280   1.085       .  S
C1277      C1278   1.395       .  A
C1278      C1281   1.444       .  S
C1281      N1283   1.157       .  T
C1282      N1284   1.157       .  T
C1285      C1286   1.402       .  A
C1285      C1290   1.410       .  A
C1286      H1291   1.085       .  S
C1286      C1287   1.402       .  A
C1287      C1288   1.409       .  A
C1287      C1294   1.443       .  S
C1288      C1289   1.402       .  A
C1289      H1292   1.085       .  S
C1289      C1290   1.401       .  A
C1290      C1293   1.444       .  S
C1293      N1295   1.157       .  T
C1294      N1296   1.157       .  T
C1297      C1298   1.409       .  A
C1297      C1302   1.421       .  A
C1298      H1303   1.084       .  S
C1298      C1299   1.398       .  A
C1299      C1300   1.405       .  A
C1299      C1306   1.444       .  S
C1300      C1301   1.400       .  A
C1301      H1304   1.085       .  S
C1301      C1302   1.403       .  A
C1302      C1305   1.445       .  S
C1305      N1307   1.158       .  T
C1306      N1308   1.157       .  T
C1309      C1310   1.403       .  A
C1309      C1314   1.409       .  A
C1310      H1315   1.085       .  S
C1310      C1311   1.405       .  A
C1311      C1312   1.419       .  A
C1311      C1318   1.444       .  S
C1312      C1313   1.409       .  A
C1313      H1316   1.084       .  S
C1313      C1314   1.397       .  A
C1314      C1317   1.445       .  S
C1317      N1319   1.157       .  T
C1318      N1320   1.158       .  T
C1321      C1322   1.408       .  A
C1321      C1326   1.420       .  A
C1322      H1327   1.084       .  S
C1322      C1323   1.400       .  A
C1323      C1324   1.413       .  A
C1323      C1330   1.443       .  S
C1324      C1325   1.404       .  A
C1325      H1328   1.085       .  S
C1325      C1326   1.401       .  A
C1326      C1329   1.445       .  S
C1329      N1331   1.157       .  T
C1330      N1332   1.157       .  T
C1333      C1334   1.403       .  A
C1333      C1338   1.413       .  A
C1334      H1339   1.085       .  S
C1334      C1335   1.396       .  A
C1335      C1336   1.417       .  A
C1335      C1342   1.446       .  S
C1336      C1337   1.408       .  A
C1337      H1340   1.084       .  S
C1337      C1338   1.405       .  A
C1338      C1341   1.444       .  S
C1341      N1343   1.157       .  T
C1342      N1344   1.158       .  T
