geometry optimzed in LAMMPS
_audit_creation_date              2020-11-30 
_audit_creation_method            'lammps2cif' 
_symmetry_space_group_name_H-M    'P1' 
_symmetry_Int_Tables_number       1 
_symmetry_cell_setting            triclinic 
loop_ 
_symmetry_equiv_pos_as_xyz 
  x,y,z 
_cell_length_a                    46.7182263 
_cell_length_b                    46.655047858403336 
_cell_length_c                    46.612245781927314 
_cell_angle_alpha                 90.01271237643574 
_cell_angle_beta                  90.15360533696276 
_cell_angle_gamma                 90.9152121498278 
loop_ 
_atom_site_label 
_atom_site_type_symbol 
_atom_site_fract_x 
_atom_site_fract_y 
_atom_site_fract_z 
_atom_site_charge 
O1          O  0.52490191  0.04091143  0.82854190    -0.86600
O2          O  0.51975477  0.04419784  0.66565468    -0.86700
O3          O  0.57916259  0.03439415  0.74040000    -0.88400
O4          O  0.51383544  0.09970961  0.75396213    -0.87200
O5          O  0.46458590  0.09953451  0.75309672    -0.86700
O6          O  0.57851162  0.98520881  0.74109508    -0.88100
O7          O  0.54326199  0.06985224  0.70078936    -0.86600
O8          O  0.55040039  0.06320865  0.79282982    -0.86200
Zr9        Zr  0.52977644  0.05026392  0.74697510     2.84300
O10         O  0.48853392  0.05052849  0.71834825    -1.08200
O11         O  0.53032152  0.00935533  0.77604372    -1.08900
C12         C  0.54491216  0.05810070  0.81939074     1.06500
C13         C  0.53753299  0.06391783  0.67436602     1.06500
C14         C  0.59134559  0.00977879  0.73804342     1.09500
C15         C  0.48930128  0.11204651  0.75613996     1.07200
H16         H  0.54506243  0.00997541  0.70503102     0.32800
O17         O  0.52879727  0.00963655  0.71774334    -1.29100
H18         H  0.49009414  0.06585661  0.78902588     0.32500
O19         O  0.48950095  0.04945907  0.77645495    -1.30800
O20         O  0.45784076  0.97294216  0.66586139    -0.86600
O21         O  0.45545323  0.97664844  0.82937638    -0.88100
O22         O  0.54458777  0.95140579  0.69985838    -0.86600
O23         O  0.43316512  0.06804769  0.70140616    -0.86700
O24         O  0.43229156  0.06604478  0.79489283    -0.86400
O25         O  0.54788624  0.95332308  0.79305499    -0.86200
O26         O  0.46261796  0.91847257  0.75034657    -0.86600
O27         O  0.39793615  0.98433506  0.74492823    -0.86000
O28         O  0.51161562  0.91935970  0.74957568    -0.87100
O29         O  0.39827953  0.03355854  0.74652184    -0.86300
O30         O  0.52145979  0.97754493  0.66556455    -0.86700
O31         O  0.52360048  0.97704997  0.82843067    -0.86400
O32         O  0.45884999  0.04343590  0.82915813    -0.86000
O33         O  0.45565941  0.04280306  0.66589555    -0.86400
O34         O  0.43490691  0.94678795  0.70074419    -0.86700
O35         O  0.43025263  0.95157359  0.79482494    -0.88100
Zr36       Zr  0.48784190  0.00943344  0.68926948     2.83100
Zr37       Zr  0.48963638  0.00892415  0.80547044     2.83500
Zr38       Zr  0.52906394  0.96869718  0.74671879     2.84100
Zr39       Zr  0.44817932  0.04970111  0.74801069     2.83400
Zr40       Zr  0.44724274  0.96787099  0.74766615     2.84200
O41         O  0.44796708  0.00868444  0.77708649    -1.08600
O42         O  0.48780450  0.96843453  0.71827053    -1.08100
C43         C  0.44163912  0.95186357  0.67423136     1.06500
C44         C  0.43622107  0.95810687  0.82118999     1.09100
C45         C  0.53952922  0.95837994  0.67347887     1.06700
C46         C  0.43832841  0.06215510  0.67483977     1.07000
C47         C  0.43980974  0.06164340  0.82115852     1.06600
C48         C  0.54249368  0.95918139  0.81958398     1.06200
C49         C  0.48717589  0.90617406  0.75100621     1.06600
C50         C  0.38549278  0.00889527  0.74430284     1.06100
H51         H  0.48869445  0.95152536  0.78858040     0.32800
O52         O  0.48861120  0.96820452  0.77634367    -1.29700
H53         H  0.43034225  0.00868427  0.70627270     0.32800
O54         O  0.44707117  0.00885986  0.71843894    -1.31100
C55         C  0.67978021  0.20720646  0.50416914     0.86400
C56         C  0.66739316  0.18866332  0.52877559    -0.53800
C57         C  0.63820047  0.18728369  0.52914046     0.09300
C58         C  0.62371762  0.20445877  0.50520539     0.20300
C59         C  0.66604187  0.19377598  0.47717442    -0.54600
C60         C  0.63662636  0.19190757  0.47742701     0.09400
C61         C  0.66537552  0.23617810  0.50812773    -0.54100
C62         C  0.63635842  0.23490564  0.50847198     0.10000
H63         H  0.67964097  0.17710795  0.54457228     0.14500
H64         H  0.60005091  0.20434213  0.50608318     0.00300
H65         H  0.67893913  0.18508107  0.46000663     0.14800
H66         H  0.67726024  0.25619272  0.51102486     0.14600
O67         O  0.54971780  0.07761580  0.29398307    -0.86600
O68         O  0.44220678  0.95381247  0.29469403    -0.86700
O69         O  0.46524042  0.04534245  0.33150532    -0.88400
O70         O  0.53170899  0.98092442  0.32716049    -0.87200
O71         O  0.55454406  0.95743919  0.29096313    -0.86700
O72         O  0.44005904  0.07060832  0.29787426    -0.88100
O73         O  0.46607917  0.97959005  0.32934515    -0.86600
O74         O  0.52884073  0.04989094  0.32910992    -0.86200
Zr75       Zr  0.49775761  0.01421006  0.30576341     2.84300
O76         O  0.49695374  0.97374680  0.27588617    -1.08200
O77         O  0.49584980  0.05580472  0.27773754    -1.08900
C78         C  0.54459228  0.07123116  0.32046156     1.06500
C79         C  0.44852726  0.95955522  0.32112529     1.06500
C80         C  0.44639613  0.06386489  0.32391875     1.09500
C81         C  0.54981999  0.96247101  0.31782880     1.07200
H82         H  0.43971241  0.01268562  0.29127341     0.32800
O83         O  0.45582353  0.01358946  0.27836804    -1.29100
H84         H  0.55442047  0.01672176  0.28751021     0.32500
O85         O  0.53746395  0.01648016  0.27563526    -1.30800
O86         O  0.43555759  0.96004289  0.20129767    -0.86600
O87         O  0.55403689  0.07294817  0.20056698    -0.88100
O88         O  0.40464656  0.03670334  0.25545475    -0.86600
O89         O  0.52078264  0.92618611  0.24065629    -0.86700
O90         O  0.58613003  0.99373627  0.24651522    -0.86400
O91         O  0.46823446  0.10519759  0.24968520    -0.86200
O92         O  0.45880770  0.05113301  0.16885059    -0.86600
O93         O  0.52571697  0.98601717  0.16448129    -0.86000
O94         O  0.43390237  0.07225923  0.20531546    -0.87100
O95         O  0.55247015  0.96247063  0.19801102    -0.86300
O96         O  0.40527544  0.98756087  0.25499514    -0.86700
O97         O  0.51724420  0.10679215  0.24479675    -0.86400
O98         O  0.58559373  0.04286523  0.25059436    -0.86000
O99         O  0.47168029  0.92475474  0.24292118    -0.86400
O100        O  0.45903928  0.98565063  0.16620529    -0.86700
O101        O  0.52701757  0.05048812  0.16574945    -0.88100
Zr102      Zr  0.45505645  0.97373168  0.24804031     2.83100
Zr103      Zr  0.53570459  0.05807622  0.24746044     2.83500
Zr104      Zr  0.45379748  0.05497120  0.25032802     2.84100
Zr105      Zr  0.53663486  0.97626869  0.24548125     2.83400
Zr106      Zr  0.49324709  0.01784930  0.18975663     2.84200
O107        O  0.53522243  0.01791909  0.21745271    -1.08600
O108        O  0.45297491  0.01523209  0.21981149    -1.08100
C109        C  0.44043507  0.96679306  0.17484640     1.06500
C110        C  0.54761830  0.06740280  0.17410933     1.09100
C111        C  0.39234133  0.01174864  0.25739695     1.06700
C112        C  0.49627111  0.91288938  0.23978049     1.07000
C113        C  0.59845491  0.01849823  0.24983936     1.06600
C114        C  0.49234268  0.11848889  0.24594975     1.06200
C115        C  0.43951883  0.06826076  0.17852275     1.06600
C116        C  0.54512049  0.96800538  0.17189640     1.06100
H117        H  0.49296836  0.07456570  0.20801931     0.32800
O118        O  0.49368297  0.05766776  0.21987097    -1.29700
H119        H  0.49447454  0.95990013  0.20486529     0.32800
O120        O  0.49479447  0.97619669  0.21763381    -1.31100
C121        C  0.29580315  0.82532452  0.00525958     0.86400
C122        C  0.31340922  0.83582987  0.97956137    -0.53800
C123        C  0.31631806  0.86492235  0.97743672     0.09300
C124        C  0.30186905  0.88111527  0.00232199     0.20300
C125        C  0.31050403  0.83871483  0.03167152    -0.54600
C126        C  0.31429772  0.86770199  0.02978568     0.09400
C127        C  0.26746321  0.84164650  0.00372562    -0.54100
C128        C  0.27040684  0.87063228  0.00189328     0.10000
H129        H  0.32344027  0.82116452  0.96471214     0.14500
H130        H  0.30447835  0.90479461  0.00128016     0.00300
H131        H  0.31770299  0.82658835  0.05010881     0.14800
H132        H  0.24652212  0.83166150  0.00650045     0.14600
C133        C  0.68816955  0.82903744  0.99759301     0.86400
C134        C  0.66948209  0.83908533  0.02285172    -0.53800
C135        C  0.66332118  0.86772125  0.02249211     0.09300
C136        C  0.67643770  0.88377391  0.99683736     0.20300
C137        C  0.67210011  0.83865140  0.97047655    -0.54600
C138        C  0.66578246  0.86718767  0.97018839     0.09400
C139        C  0.71454524  0.84924433  0.99780347    -0.54100
C140        C  0.70856489  0.87758474  0.99881492     0.10000
H141        H  0.66185246  0.82470243  0.03957736     0.14500
H142        H  0.67126960  0.90689977  0.99614272     0.00300
H143        H  0.66579107  0.82417696  0.95327152     0.14800
H144        H  0.73652610  0.84252621  0.99613237     0.14600
C145        C  0.68038029  0.81804474  0.49934787     0.86400
C146        C  0.67049795  0.83159406  0.47086461    -0.53800
C147        C  0.64167106  0.83655009  0.46892755     0.09300
C148        C  0.62526732  0.82741440  0.49626650     0.20300
C149        C  0.66915308  0.83885357  0.52246718    -0.54600
C150        C  0.64042659  0.84402982  0.52059256     0.09400
C151        C  0.66151713  0.79118295  0.50328584    -0.54100
C152        C  0.63293492  0.79584265  0.50166100     0.10000
H153        H  0.68539891  0.83746891  0.45393909     0.14500
H154        H  0.60197327  0.83139292  0.49540649     0.00300
H155        H  0.68184998  0.84812887  0.53960205     0.14800
H156        H  0.67011543  0.77001685  0.50714457     0.14600
C157        C  0.29570742  0.19645255  0.99568244     0.86400
C158        C  0.31317171  0.18919744  0.02267867    -0.53800
C159        C  0.31984469  0.16092357  0.02505025     0.09300
C160        C  0.30827251  0.14210521  0.00043180     0.20300
C161        C  0.31328997  0.18467568  0.97051542    -0.54600
C162        C  0.32043518  0.15631658  0.97302264     0.09400
C163        C  0.26955010  0.17590666  0.99654593    -0.54100
C164        C  0.27594142  0.14784818  0.99925701     0.10000
H165        H  0.31985775  0.20509818  0.03845521     0.14500
H166        H  0.31375851  0.11929931  0.00334048     0.00300
H167        H  0.31969503  0.19779792  0.95233195     0.14800
H168        H  0.24756978  0.18166881  0.99266795     0.14600
C169        C  0.69261299  0.19844635  0.99189557     0.86400
C170        C  0.67467626  0.18879017  0.96571993    -0.53800
C171        C  0.66870470  0.15999369  0.96497832     0.09300
C172        C  0.68163858  0.14314495  0.99004265     0.20300
C173        C  0.67593948  0.18682726  0.01795515    -0.54600
C174        C  0.66950780  0.15796746  0.01703338     0.09400
C175        C  0.71928160  0.17941597  0.99090059    -0.54100
C176        C  0.71365435  0.15088269  0.98897318     0.10000
H177        H  0.66747889  0.20342995  0.94919272     0.14500
H178        H  0.67779348  0.11967125  0.98905016     0.00300
H179        H  0.66893036  0.20069215  0.03517281     0.14800
H180        H  0.74129453  0.18671879  0.99050828     0.14600
C181        C  0.30764847  0.20414052  0.49588797     0.86400
C182        C  0.31820598  0.18237727  0.47339531    -0.53800
C183        C  0.34682047  0.17743282  0.47486213     0.09300
C184        C  0.36262890  0.19446696  0.49826813     0.20300
C185        C  0.31779070  0.19144008  0.52459493    -0.54600
C186        C  0.34649095  0.18667020  0.52591687     0.09400
C187        C  0.32665005  0.23077269  0.49073740    -0.54100
C188        C  0.35526013  0.22570350  0.49182576     0.10000
H189        H  0.30534211  0.17192965  0.45707097     0.14500
H190        H  0.38597891  0.19035051  0.49920247     0.00300
H191        H  0.30326789  0.18519547  0.54173246     0.14800
H192        H  0.31816954  0.25185497  0.48622512     0.14600
C193        C  0.30741704  0.81114456  0.49216926     0.86400
C194        C  0.32025408  0.82423275  0.51999211    -0.53800
C195        C  0.34933593  0.82795455  0.51932432     0.09300
C196        C  0.36311113  0.81824669  0.49096835     0.20300
C197        C  0.31821252  0.83099468  0.46811685    -0.54600
C198        C  0.34718541  0.83524704  0.46771267     0.09400
C199        C  0.32398397  0.78335978  0.48861395    -0.54100
C200        C  0.35292294  0.78683849  0.48682871     0.10000
H201        H  0.30810816  0.83055863  0.53862030     0.14500
H202        H  0.38671045  0.82137753  0.49036318     0.00300
H203        H  0.30398023  0.84054015  0.45248071     0.14800
H204        H  0.31354963  0.76245361  0.48682183     0.14600
O205        O  0.90231240  0.75831778  0.47020238    -0.86600
O206        O  0.01988367  0.75181421  0.58312993    -0.86700
O207        O  0.93420890  0.70719219  0.54878417    -0.88400
O208        O  0.94027358  0.79963854  0.55556038    -0.87200
O209        O  0.96110409  0.83516430  0.52811925    -0.86700
O210        O  0.96050045  0.67224689  0.52686198    -0.88100
O211        O  0.97064933  0.75046606  0.58416757    -0.86600
O212        O  0.90344646  0.75928417  0.51934836    -0.86200
Zr213      Zr  0.95329202  0.75391221  0.53478117     2.84300
O214        O  0.99408941  0.78365403  0.53418944    -1.08200
O215        O  0.95237881  0.72440368  0.49421379    -1.08900
C216        C  0.89028151  0.76123092  0.49495206     1.06500
C217        C  0.99558834  0.74980665  0.59619712     1.06500
C218        C  0.94040795  0.68081171  0.54369585     1.09500
C219        C  0.94507621  0.82613256  0.54900696     1.07200
H220        H  0.99455991  0.71319093  0.55081628     0.32800
O221        O  0.99417237  0.72539381  0.53410951    -1.29100
H222        H  0.93624805  0.79521664  0.49396859     0.32500
O223        O  0.95262594  0.78288680  0.49375018    -1.30800
O224        O  0.08379212  0.75996344  0.51527474    -0.86600
O225        O  0.96724193  0.74975125  0.40314860    -0.88100
O226        O  0.02803182  0.67370770  0.52561567    -0.86600
O227        O  0.02619482  0.83639885  0.52761204    -0.86700
O228        O  0.96070114  0.83477746  0.45888266    -0.86400
O229        O  0.95697839  0.67125367  0.46427302    -0.86200
O230        O  0.05134533  0.70862084  0.43655764    -0.86600
O231        O  0.04624087  0.80160922  0.43160987    -0.86000
O232        O  0.02633009  0.67307513  0.46004515    -0.87100
O233        O  0.02403988  0.83668284  0.45769446    -0.86300
O234        O  0.05428774  0.70950460  0.54731769    -0.86700
O235        O  0.93050278  0.70566268  0.44191832    -0.86400
O236        O  0.93732428  0.79920978  0.43375070    -0.86000
O237        O  0.05097862  0.80170303  0.55177281    -0.86400
O238        O  0.08269558  0.75933562  0.46613051    -0.86700
O239        O  0.01629514  0.75148149  0.40285265    -0.88100
Zr240      Zr  0.03492240  0.75538621  0.53313722     2.83100
Zr241      Zr  0.95138429  0.75300653  0.45311901     2.83500
Zr242      Zr  0.99337254  0.69600375  0.49346542     2.84100
Zr243      Zr  0.99326047  0.81277326  0.49330198     2.83400
Zr244      Zr  0.03290517  0.75486075  0.45181400     2.84200
O245        O  0.99206342  0.78293320  0.45274298    -1.08600
O246        O  0.03428458  0.72583534  0.49260874    -1.08100
C247        C  0.09588828  0.76129073  0.49041742     1.06500
C248        C  0.99178458  0.74957592  0.39029019     1.09100
C249        C  0.04818679  0.68287890  0.54256090     1.06700
C250        C  0.04457392  0.82803038  0.54663538     1.07000
C251        C  0.94326409  0.82580877  0.43906331     1.06600
C252        C  0.93590999  0.67926672  0.44821475     1.06200
C253        C  0.04545341  0.68200530  0.44192874     1.06600
C254        C  0.04055364  0.82803621  0.43728570     1.06100
H255        H  0.99187361  0.71209895  0.43562438     0.32800
O256        O  0.99227462  0.72451229  0.45220687    -1.29700
H257        H  0.05070802  0.79726206  0.49182770     0.32800
O258        O  0.03414289  0.78463313  0.49231982    -1.31100
O259        O  0.90525586  0.25231078  0.47691749    -0.86600
O260        O  0.02200435  0.26520803  0.58951882    -0.86700
O261        O  0.94067387  0.20976704  0.55979758    -0.88400
O262        O  0.93777535  0.30410584  0.55704405    -0.87200
O263        O  0.96284847  0.33900315  0.53298376    -0.86700
O264        O  0.96354464  0.17590144  0.53309902    -0.88100
O265        O  0.97286013  0.26222010  0.59095605    -0.86600
O266        O  0.90570909  0.25291464  0.52618870    -0.86200
Zr267      Zr  0.95549333  0.25729257  0.54184905     2.84300
O268        O  0.99637309  0.28708186  0.54106077    -1.08200
O269        O  0.95449812  0.22873064  0.50057480    -1.08900
C270        C  0.89291149  0.25083626  0.50164189     1.06500
C271        C  0.99771177  0.26613672  0.60263748     1.06500
C272        C  0.94602197  0.18342923  0.55316253     1.09500
C273        C  0.94355340  0.33069108  0.55098906     1.07200
H274        H  0.99692906  0.21716319  0.55787487     0.32800
O275        O  0.99646917  0.22904490  0.54092829    -1.29100
H276        H  0.93783646  0.29802932  0.50136312     0.32500
O277        O  0.95490287  0.28663661  0.50109115    -1.30800
O278        O  0.08603887  0.25438849  0.52317975    -0.86600
O279        O  0.96918705  0.26646169  0.41069101    -0.88100
O280        O  0.03023068  0.17807449  0.52958913    -0.86600
O281        O  0.02952890  0.34018816  0.53381654    -0.86700
O282        O  0.96265632  0.33938635  0.46737979    -0.86400
O283        O  0.96189556  0.17688111  0.46690536    -0.86200
O284        O  0.04896471  0.21292944  0.43758126    -0.86600
O285        O  0.05461854  0.30656654  0.44323271    -0.86000
O286        O  0.02480392  0.17757635  0.46254296    -0.87100
O287        O  0.02963727  0.34052234  0.46807459    -0.86300
O288        O  0.05259663  0.21241878  0.55694441    -0.86700
O289        O  0.93945707  0.21120264  0.44048849    -0.86400
O290        O  0.93542307  0.30405913  0.44622210    -0.86000
O291        O  0.05726210  0.30561338  0.55456458    -0.86400
O292        O  0.08550565  0.25537917  0.47384130    -0.86700
O293        O  0.01833957  0.26635133  0.40900799    -0.88100
Zr294      Zr  0.03723204  0.25899757  0.53995948     2.83100
Zr295      Zr  0.95420271  0.25796061  0.45995287     2.83500
Zr296      Zr  0.99540650  0.20081876  0.49907205     2.84100
Zr297      Zr  0.99608718  0.31631959  0.50039753     2.83400
Zr298      Zr  0.03598954  0.25946377  0.45781610     2.84200
O299        O  0.99507581  0.28756940  0.45941613    -1.08600
O300        O  0.03636013  0.23031970  0.49866664    -1.08100
C301        C  0.09817349  0.25325269  0.49840443     1.06500
C302        C  0.99334057  0.26909002  0.39747846     1.09100
C303        C  0.04790376  0.18616819  0.54940641     1.06700
C304        C  0.05025991  0.33197118  0.55021535     1.07000
C305        C  0.94223134  0.33055433  0.45055481     1.06600
C306        C  0.94459492  0.18481373  0.44690353     1.06200
C307        C  0.04205159  0.18643338  0.44262505     1.06600
C308        C  0.04901468  0.33277534  0.45005283     1.06100
H309        H  0.99424765  0.21869272  0.44068954     0.32800
O310        O  0.99496291  0.22994497  0.45806458    -1.29700
H311        H  0.05430189  0.29992940  0.49912267     0.32800
O312        O  0.03716642  0.28809351  0.49916527    -1.31100
C313        C  0.79410217  0.50428483  0.68129305     0.86400
C314        C  0.80981730  0.47740717  0.67057728    -0.53800
C315        C  0.81514292  0.47738406  0.64169640     0.09300
C316        C  0.80425556  0.50429870  0.62614053     0.20300
C317        C  0.81336489  0.52927922  0.67097020    -0.54600
C318        C  0.81901896  0.52949368  0.64209299     0.09400
C319        C  0.76721606  0.50507717  0.66254300    -0.54100
C320        C  0.77245740  0.50568709  0.63396649     0.10000
H321        H  0.81686721  0.45992415  0.68392543     0.14500
H322        H  0.80725601  0.50447891  0.60264893     0.00300
H323        H  0.82242665  0.54492166  0.68579771     0.14800
H324        H  0.74567002  0.50601462  0.67118417     0.14600
C325        C  0.19326473  0.51413493  0.68408578     0.86400
C326        C  0.17369547  0.53781885  0.67280518    -0.53800
C327        C  0.16944097  0.53723763  0.64376986     0.09300
C328        C  0.18557607  0.51334438  0.62834769     0.20300
C329        C  0.17992439  0.48591292  0.67256132    -0.54600
C330        C  0.17533648  0.48557060  0.64346933     0.09400
C331        C  0.22089398  0.51730799  0.66642092    -0.54100
C332        C  0.21694116  0.51772395  0.63758170     0.10000
H333        H  0.16427685  0.55383651  0.68663176     0.14500
H334        H  0.18242903  0.51323849  0.60471550     0.00300
H335        H  0.17351678  0.46824297  0.68632118     0.14800
H336        H  0.24230277  0.51898504  0.67531262     0.14600
C337        C  0.81005825  0.00906891  0.29979899     0.86400
C338        C  0.81828456  0.98317724  0.31854115    -0.53800
C339        C  0.84704423  0.98114886  0.32390674     0.09300
C340        C  0.86500873  0.00540959  0.31016092     0.20300
C341        C  0.82303170  0.03483778  0.31664755    -0.54600
C342        C  0.85180567  0.03293188  0.32207247     0.09400
C343        C  0.82846004  0.00679932  0.27295459    -0.54100
C344        C  0.85692946  0.00482876  0.27818670     0.10000
H345        H  0.80272027  0.96764667  0.32647690     0.14500
H346        H  0.88831259  0.00376431  0.31437749     0.00300
H347        H  0.81062641  0.05213956  0.32549667     0.14800
H348        H  0.81961819  0.00648909  0.25135635     0.14600
C349        C  0.80118286  0.00112854  0.68211292     0.86400
C350        C  0.81599227  0.02683139  0.66689361    -0.53800
C351        C  0.84518267  0.02590428  0.66660419     0.09300
C352        C  0.85736571  0.99967903  0.68221901     0.20300
C353        C  0.81360088  0.97475538  0.66678974    -0.54600
C354        C  0.84298699  0.97386921  0.66694263     0.09400
C355        C  0.81489973  0.00089814  0.71194579    -0.54100
C356        C  0.84413920  0.99952803  0.71265270     0.10000
H357        H  0.80518125  0.04401566  0.65600915     0.14500
H358        H  0.88106561  0.99967115  0.68175986     0.00300
H359        H  0.80030769  0.95869378  0.65610811     0.14800
H360        H  0.80184497  0.00049306  0.73116155     0.14600
C361        C  0.79824069  0.50278155  0.31146010     0.86400
C362        C  0.80976892  0.52972689  0.32726303    -0.53800
C363        C  0.81109031  0.52701383  0.35637926     0.09300
C364        C  0.79972904  0.49796436  0.36744506     0.20300
C365        C  0.81797708  0.47894474  0.32252588    -0.54600
C366        C  0.81839136  0.47598722  0.35180618     0.09400
C367        C  0.76908391  0.49662484  0.32517684    -0.54100
C368        C  0.76959946  0.49371416  0.35422653     0.10000
H369        H  0.81925132  0.54833000  0.31694222     0.14500
H370        H  0.80049132  0.49639956  0.39118496     0.00300
H371        H  0.83079024  0.46582369  0.30843113     0.14800
H372        H  0.74941479  0.49494978  0.31275214     0.14600
C373        C  0.19676975  0.50594627  0.31436829     0.86400
C374        C  0.17952791  0.48005145  0.32647557    -0.53800
C375        C  0.17358535  0.48221864  0.35497339     0.09300
C376        C  0.18499690  0.50966964  0.36909898     0.20300
C377        C  0.17834819  0.53188387  0.32241228    -0.54600
C378        C  0.17249504  0.53407190  0.35108478     0.09400
C379        C  0.22321644  0.50792275  0.33392653    -0.54100
C380        C  0.21710699  0.50998893  0.36242102     0.10000
H381        H  0.17154987  0.46182281  0.31441391     0.14500
H382        H  0.17989057  0.51080435  0.39232475     0.00300
H383        H  0.17041108  0.54703664  0.30671943     0.14800
H384        H  0.24497284  0.50635556  0.32595863     0.14600
C385        C  0.17928492  0.00977821  0.30298839     0.86400
C386        C  0.16595971  0.03287063  0.32270933    -0.53800
C387        C  0.13644210  0.03244347  0.32369108     0.09300
C388        C  0.12314831  0.00827776  0.30499751     0.20300
C389        C  0.16667207  0.98151376  0.31445140    -0.54600
C390        C  0.13756185  0.98038074  0.31554385     0.09400
C391        C  0.16452849  0.01480515  0.27408244    -0.54100
C392        C  0.13533869  0.01403333  0.27470611     0.10000
H393        H  0.17824619  0.04876087  0.33453583     0.14500
H394        H  0.09951571  0.00758965  0.30516680     0.00300
H395        H  0.17984320  0.96429824  0.32254165     0.14800
H396        H  0.17645030  0.01928631  0.25455948     0.14600
C397        C  0.17463801  0.00903462  0.69400152     0.86400
C398        C  0.16504149  0.98067422  0.67986348    -0.53800
C399        C  0.13639655  0.97873234  0.67408253     0.09300
C400        C  0.11968255  0.00550375  0.68301711     0.20300
C401        C  0.16358776  0.03227624  0.67324396    -0.54600
C402        C  0.13488152  0.03048764  0.66760249     0.09400
C403        C  0.15556976  0.01232992  0.72039720    -0.54100
C404        C  0.12699021  0.01062751  0.71482642     0.10000
H405        H  0.17996389  0.96426096  0.67345430     0.14500
H406        H  0.09642652  0.00365960  0.67832707     0.00300
H407        H  0.17634651  0.04944008  0.66408142     0.14800
H408        H  0.16401699  0.01645941  0.74177117     0.14600
O409        O  0.74431159  0.60612089  0.97188884    -0.86600
O410        O  0.75278915  0.48935110  0.08612222    -0.86700
O411        O  0.70227768  0.57229904  0.05630631    -0.88400
O412        O  0.79501875  0.57309225  0.05286760    -0.87200
O413        O  0.82799077  0.54637325  0.02860513    -0.86700
O414        O  0.66593981  0.55098318  0.03077353    -0.88100
O415        O  0.75321820  0.53859416  0.08687276    -0.86600
O416        O  0.74325503  0.60528566  0.02116341    -0.86200
Zr417      Zr  0.74778685  0.55589364  0.03774186     2.84300
O418        O  0.77501534  0.51441254  0.03703032    -1.08200
O419        O  0.71848414  0.55621679  0.99716376    -1.08900
C420        C  0.74199735  0.61825443  0.99668343     1.06500
C421        C  0.75537134  0.51375039  0.09888536     1.06500
C422        C  0.67554788  0.56855836  0.05022123     1.09500
C423        C  0.82090951  0.56603651  0.04665026     1.07200
H424        H  0.70589122  0.51600250  0.05602113     0.32800
O425        O  0.71709673  0.51575003  0.03863787    -1.29100
H426        H  0.78845324  0.57272908  0.99637771     0.32500
O427        O  0.77615087  0.55590805  0.99641440    -1.30800
O428        O  0.73791195  0.42531951  0.02069711    -0.86600
O429        O  0.74701775  0.53999477  0.90598568    -0.88100
O430        O  0.66366335  0.48391035  0.03184898    -0.86600
O431        O  0.82575587  0.47993323  0.02846917    -0.86700
O432        O  0.82781739  0.54665139  0.96363875    -0.86400
O433        O  0.66502276  0.55025745  0.96566820    -0.86200
O434        O  0.69619653  0.46127380  0.93716660    -0.86600
O435        O  0.78831071  0.45444312  0.94074526    -0.86000
O436        O  0.66242879  0.48493421  0.96329197    -0.87100
O437        O  0.82469494  0.47976366  0.96302363    -0.86300
O438        O  0.69847094  0.46030930  0.05676983    -0.86700
O439        O  0.70006147  0.57375436  0.94016758    -0.86400
O440        O  0.79427805  0.57280606  0.93985490    -0.86000
O441        O  0.79036755  0.45451113  0.05165807    -0.86400
O442        O  0.73688708  0.42540066  0.97160629    -0.86700
O443        O  0.74576481  0.49085074  0.90601394    -0.88100
Zr444      Zr  0.74462435  0.47430085  0.03708749     2.83100
Zr445      Zr  0.74668760  0.55644356  0.95574834     2.83500
Zr446      Zr  0.68748277  0.51638111  0.99783115     2.84100
Zr447      Zr  0.80307524  0.51381445  0.99585013     2.83400
Zr448      Zr  0.74307659  0.47480551  0.95559062     2.84200
O449        O  0.77395609  0.51479439  0.95494927    -1.08600
O450        O  0.71467302  0.47480185  0.99684145    -1.08100
C451        C  0.73547760  0.41269256  0.99620894     1.06500
C452        C  0.74692990  0.51536713  0.89322375     1.09100
C453        C  0.67210386  0.46624918  0.05140259     1.06700
C454        C  0.81689644  0.46009499  0.04581620     1.07000
C455        C  0.82051607  0.56618419  0.94563457     1.06600
C456        C  0.67357896  0.56872119  0.94685189     1.06200
C457        C  0.67007983  0.46757940  0.94311381     1.06600
C458        C  0.81494905  0.45979807  0.94628122     1.06100
H459        H  0.70386779  0.51690769  0.93933308     0.32800
O460        O  0.71584874  0.51638861  0.95622409    -1.29700
H461        H  0.78361647  0.45593468  0.99583424     0.32800
O462        O  0.77275744  0.47336564  0.99592845    -1.31100
O463        O  0.25222799  0.60087693  0.97915470    -0.86600
O464        O  0.24595538  0.48235186  0.09043833    -0.86700
O465        O  0.20359323  0.56862905  0.05873146    -0.88400
O466        O  0.29609924  0.56225236  0.06113769    -0.87200
O467        O  0.32986352  0.54045567  0.03343745    -0.86700
O468        O  0.16744019  0.54317104  0.03662664    -0.88100
O469        O  0.24617453  0.53161511  0.09166172    -0.86600
O470        O  0.25409918  0.59910056  0.02830065    -0.86200
Zr471      Zr  0.24882118  0.54930316  0.04271281     2.84300
O472        O  0.27651810  0.50828978  0.04085016    -1.08200
O473        O  0.21848949  0.55141016  0.00284266    -1.08900
C474        C  0.25515707  0.61255098  0.00414706     1.06500
C475        C  0.24520270  0.50666793  0.10360150     1.06500
C476        C  0.17694457  0.56281543  0.05382790     1.09500
C477        C  0.32225201  0.55714625  0.05418380     1.07200
H478        H  0.20674697  0.50856743  0.05925115     0.32800
O479        O  0.21835010  0.50896771  0.04247394    -1.29100
H480        H  0.28930363  0.56684372  0.00115800     0.32500
O481        O  0.27653090  0.55071815  0.00094526    -1.30800
O482        O  0.24737837  0.41906046  0.02249266    -0.86600
O483        O  0.24018611  0.53750087  0.91083523    -0.88100
O484        O  0.16507292  0.47528329  0.03311818    -0.86600
O485        O  0.32800582  0.47810459  0.03281872    -0.86700
O486        O  0.32698806  0.54238736  0.96546339    -0.86400
O487        O  0.16469579  0.54698224  0.97264762    -0.86200
O488        O  0.19580458  0.45418101  0.94351100    -0.86600
O489        O  0.28817917  0.45842786  0.93594999    -0.86000
O490        O  0.16279892  0.47937638  0.96927173    -0.87100
O491        O  0.32479503  0.47869111  0.96254837    -0.86300
O492        O  0.19981881  0.44972407  0.05643740    -0.86700
O493        O  0.19962294  0.57353961  0.94984658    -0.86400
O494        O  0.29206744  0.56613365  0.94080829    -0.86000
O495        O  0.29330041  0.45351466  0.05814586    -0.86400
O496        O  0.24595588  0.42079084  0.97333539    -0.86700
O497        O  0.23889392  0.48840165  0.90947172    -0.88100
Zr498      Zr  0.24642366  0.46788872  0.04026981     2.83100
Zr499      Zr  0.24585212  0.55234498  0.96098258     2.83500
Zr500      Zr  0.18844824  0.51084245  0.00226985     2.84100
Zr501      Zr  0.30403523  0.50953868  0.99908904     2.83400
Zr502      Zr  0.24333002  0.47082809  0.95848022     2.84200
O503        O  0.27351759  0.51119059  0.95917458    -1.08600
O504        O  0.21597261  0.46941765  0.00030617    -1.08100
C505        C  0.24755570  0.40724173  0.99745402     1.06500
C506        C  0.23787687  0.51326339  0.89740105     1.09100
C507        C  0.17349053  0.45558696  0.05056027     1.06700
C508        C  0.31957678  0.46048219  0.05250417     1.07000
C509        C  0.31843868  0.55981177  0.94585166     1.06600
C510        C  0.17323005  0.56781517  0.95623005     1.06200
C511        C  0.16990151  0.46066264  0.95029862     1.06600
C512        C  0.31482181  0.46346662  0.94150358     1.06100
H513        H  0.20271153  0.51285515  0.94431073     0.32800
O514        O  0.21542258  0.51202023  0.96030179    -1.29700
H515        H  0.28610034  0.45207030  0.99741102     0.32800
O516        O  0.27424384  0.46871123  0.99837344    -1.31100
C517        C  0.00001926  0.70830589  0.80986180     0.86400
C518        C  0.02610812  0.69141112  0.82096249    -0.53800
C519        C  0.02716102  0.68813124  0.85027837     0.09300
C520        C  0.00158461  0.70185061  0.86572545     0.20300
C521        C  0.97404710  0.69176508  0.82242262    -0.54600
C522        C  0.97514515  0.68762492  0.85136214     0.09400
C523        C  0.00035556  0.73635556  0.82666879    -0.54100
C524        C  0.00172581  0.73331633  0.85556864     0.10000
H525        H  0.04155770  0.68192031  0.80662117     0.14500
H526        H  0.00205806  0.69966875  0.88943640     0.00300
H527        H  0.95600557  0.68350890  0.81033821     0.14800
H528        H  0.00002224  0.75727858  0.81642072     0.14600
C529        C  0.99120137  0.32467690  0.81099658     0.86400
C530        C  0.96318146  0.33611460  0.82381734    -0.53800
C531        C  0.96272725  0.33697985  0.85313458     0.09300
C532        C  0.99073436  0.32676705  0.86710348     0.20300
C533        C  0.01399088  0.34503051  0.82407127    -0.54600
C534        C  0.01425617  0.34554459  0.85336426     0.09400
C535        C  0.99541160  0.29559211  0.82577328    -0.54100
C536        C  0.99555682  0.29659341  0.85502941     0.10000
H537        H  0.94645135  0.34595031  0.81131162     0.14500
H538        H  0.99074837  0.32776602  0.89090630     0.00300
H539        H  0.02859849  0.35808102  0.81132613     0.14800
H540        H  0.99771034  0.27576405  0.81386162     0.14600
C541        C  0.49332811  0.69474664  0.79928891     0.86400
C542        C  0.46601140  0.68280192  0.81337593    -0.53800
C543        C  0.46759045  0.65472187  0.82114764     0.09300
C544        C  0.49628456  0.64079260  0.81413641     0.20300
C545        C  0.51774970  0.68822446  0.82053889    -0.54600
C546        C  0.51905388  0.66007247  0.82859344     0.09400
C547        C  0.49915478  0.67397767  0.77424268    -0.54100
C548        C  0.50068755  0.64585865  0.78194949     0.10000
H549        H  0.44737430  0.69571887  0.81773275     0.14500
H550        H  0.49745147  0.61796553  0.82069411     0.00300
H551        H  0.53337945  0.70424747  0.82749666     0.14800
H552        H  0.50341098  0.68024299  0.75233612     0.14600
C553        C  0.49660995  0.70028223  0.19442238     0.86400
C554        C  0.52248799  0.69150013  0.17640900    -0.53800
C555        C  0.52524007  0.66259040  0.17297711     0.09300
C556        C  0.50160832  0.64470094  0.18815765     0.20300
C557        C  0.47095561  0.68553621  0.17904349    -0.54600
C558        C  0.47358497  0.65657484  0.17565190     0.09400
C559        C  0.49951207  0.68373798  0.22252372    -0.54100
C560        C  0.50187495  0.65481328  0.21974955     0.10000
H561        H  0.53730898  0.70695244  0.16694878     0.14500
H562        H  0.50378607  0.62120488  0.18530360     0.00300
H563        H  0.45253729  0.69634363  0.17042667     0.14800
H564        H  0.50023428  0.69442471  0.24321701     0.14600
C565        C  0.98981705  0.32041340  0.18661106     0.86400
C566        C  0.01608042  0.33582486  0.17304195    -0.53800
C567        C  0.01533194  0.33771651  0.14363248     0.09300
C568        C  0.98817967  0.32347501  0.13043349     0.20300
C569        C  0.96439814  0.33716308  0.17472457    -0.54600
C570        C  0.96344066  0.33884616  0.14551887     0.09400
C571        C  0.98864487  0.29127618  0.17146543    -0.54100
C572        C  0.98743299  0.29263019  0.14235859     0.10000
H573        H  0.03347399  0.34559779  0.18504161     0.14500
H574        H  0.98720435  0.32411894  0.10667766     0.00300
H575        H  0.94873835  0.34740182  0.18834901     0.14800
H576        H  0.98814857  0.27100885  0.18295955     0.14600
C577        C  0.99930628  0.71108842  0.17668025     0.86400
C578        C  0.97556503  0.69078043  0.16549983    -0.53800
C579        C  0.97729253  0.68507886  0.13688260     0.09300
C580        C  0.00237955  0.70005629  0.12166994     0.20300
C581        C  0.02752855  0.69733166  0.16737874    -0.54600
C582        C  0.02892174  0.69110134  0.13876528     0.09400
C583        C  0.99724574  0.73770223  0.15709896    -0.54100
C584        C  0.99915726  0.73194844  0.12852105     0.10000
H585        H  0.95868334  0.68191779  0.17897652     0.14500
H586        H  0.00333975  0.69504319  0.09840420     0.00300
H587        H  0.04455998  0.69203753  0.18227220     0.14800
H588        H  0.99481939  0.75954674  0.16416303     0.14600
C589        C  0.49010682  0.32296318  0.80977684     0.86400
C590        C  0.51696810  0.33574603  0.82436429    -0.53800
C591        C  0.51798041  0.36507327  0.82545255     0.09300
C592        C  0.49120998  0.37912943  0.81245612     0.20300
C593        C  0.46525929  0.33596640  0.82721940    -0.54600
C594        C  0.46599393  0.36529793  0.82855457     0.09400
C595        C  0.48820298  0.33796408  0.78057620    -0.54100
C596        C  0.48863314  0.36711213  0.78189543     0.10000
H597        H  0.53361069  0.32257743  0.83356428     0.14500
H598        H  0.49117419  0.40288040  0.81337246     0.00300
H599        H  0.44847019  0.32387227  0.83789524     0.14800
H600        H  0.48585794  0.32639621  0.76044562     0.14600
C601        C  0.49586263  0.32900553  0.19503282     0.86400
C602        C  0.47331039  0.33991167  0.17357401    -0.53800
C603        C  0.47422786  0.36899971  0.16912990     0.09300
C604        C  0.49840138  0.38437207  0.18585948     0.20300
C605        C  0.52426442  0.33965372  0.18162200    -0.54600
C606        C  0.52544958  0.36842859  0.17664033     0.09400
C607        C  0.49221269  0.34727868  0.22201260    -0.54100
C608        C  0.49337723  0.37599998  0.21732652     0.10000
H609        H  0.45779247  0.32593101  0.16297694     0.14500
H610        H  0.49948955  0.40791966  0.18268739     0.00300
H611        H  0.54102421  0.32590232  0.17385008     0.14800
H612        H  0.48871850  0.33818637  0.24320546     0.14600
O613        O  0.54809917  0.44692690  0.54374506    -0.86600
O614        O  0.46239074  0.49516319  0.41393977    -0.86700
O615        O  0.48005769  0.41986675  0.47532277    -0.88400
O616        O  0.55576358  0.46737294  0.44513367    -0.87200
O617        O  0.57101897  0.51422434  0.44897949    -0.86700
O618        O  0.44429810  0.42932590  0.50743592    -0.88100
O619        O  0.49198544  0.45735116  0.42339177    -0.86600
O620        O  0.53855547  0.42871597  0.49882801    -0.86200
Zr621      Zr  0.51033115  0.46281034  0.47194605     2.84300
O622        O  0.50735967  0.50913149  0.45328518    -1.08200
O623        O  0.49555806  0.46271305  0.52001262    -1.08900
C624        C  0.54925814  0.42719575  0.52430830     1.06500
C625        C  0.47531232  0.47184191  0.40694531     1.06500
C626        C  0.45728216  0.41290144  0.48955204     1.09500
C627        C  0.57381017  0.48824448  0.44029857     1.07200
H628        H  0.45084756  0.46671061  0.46372264     0.32800
O629        O  0.46324251  0.47919567  0.47486462    -1.29100
H630        H  0.55971468  0.48636201  0.49769437     0.32500
O631        O  0.54042147  0.49343851  0.49834789    -1.30800
O632        O  0.43623639  0.57271229  0.46141317    -0.86600
O633        O  0.52365158  0.52402797  0.58922983    -0.88100
O634        O  0.40431487  0.47811462  0.49490995    -0.86600
O635        O  0.53135064  0.55829726  0.42903377    -0.86700
O636        O  0.58277515  0.53868207  0.50585285    -0.86400
O637        O  0.45463586  0.45798159  0.57088974    -0.86200
O638        O  0.42990828  0.55324861  0.55265015    -0.86600
O639        O  0.50707688  0.59980191  0.52514330    -0.86000
O640        O  0.41353008  0.50665648  0.54865006    -0.87100
O641        O  0.54317370  0.58972820  0.49351040    -0.86300
O642        O  0.41195467  0.50716485  0.45586086    -0.86700
O643        O  0.50130864  0.46712176  0.58393460    -0.86400
O644        O  0.57436579  0.51207246  0.54665079    -0.86000
O645        O  0.48386898  0.55209338  0.41916109    -0.86400
O646        O  0.44701814  0.59015479  0.50616869    -0.86700
O647        O  0.49431825  0.56123815  0.57847904    -0.88100
Zr648      Zr  0.46054551  0.52586544  0.45666182     2.83100
Zr649      Zr  0.52535533  0.49387677  0.54626730     2.83500
Zr650      Zr  0.44859672  0.47908484  0.52284288     2.84100
Zr651      Zr  0.53806298  0.53983113  0.47862593     2.83400
Zr652      Zr  0.47714166  0.55645815  0.52978956     2.84200
O653        O  0.52405230  0.54024108  0.52697652    -1.08600
O654        O  0.44643821  0.52570820  0.50434770    -1.08100
C655        C  0.43482390  0.59195332  0.48155643     1.06500
C656        C  0.51007272  0.54704524  0.59590175     1.09100
C657        C  0.39635596  0.49014156  0.47132169     1.06700
C658        C  0.50929644  0.55967217  0.41203185     1.07000
C659        C  0.59040915  0.52745895  0.52997362     1.06600
C660        C  0.47581958  0.45731397  0.58887684     1.06200
C661        C  0.41084399  0.53310752  0.55597194     1.06600
C662        C  0.52967009  0.60667112  0.51053208     1.06100
H663        H  0.47167129  0.51113406  0.56853777     0.32800
O664        O  0.47837008  0.51030859  0.54899773    -1.29700
H665        H  0.49087174  0.57590491  0.47361758     0.32800
O666        O  0.49143036  0.55686006  0.48168643    -1.31100
O667        O  0.05914165  0.96138074  0.03608356    -0.86600
O668        O  0.00124649  0.04060447  0.90673412    -0.86700
O669        O  0.03096999  0.94744516  0.94293513    -0.88400
O670        O  0.07981793  0.02463369  0.96747646    -0.87200
O671        O  0.07126881  0.06349818  0.99645580    -0.86700
O672        O  0.98451048  0.93215286  0.94993897    -0.88100
O673        O  0.03809578  0.01022326  0.91602713    -0.86600
O674        O  0.07105453  0.96676325  0.98882605    -0.86200
Zr675      Zr  0.03590883  0.99520193  0.96515196     2.84300
O676        O  0.02023320  0.04258418  0.96656973    -1.08200
O677        O  0.00697937  0.96607891  0.99367451    -1.08900
C678        C  0.07671628  0.95903221  0.01466488     1.06500
C679        C  0.02368234  0.02651194  0.89926287     1.06500
C680        C  0.01025483  0.92873539  0.94099016     1.09500
C681        C  0.08739641  0.04813750  0.98035937     1.07200
H682        H  0.98848528  0.98882817  0.92885339     0.32800
O683        O  0.98892306  0.99613502  0.94823152    -1.29100
H684        H  0.05818568  0.01274038  0.01889331     0.32500
O685        O  0.03867740  0.01255366  0.01205641    -1.30800
O686        O  0.92527793  0.06555118  0.95682299    -0.86600
O687        O  0.98234503  0.98327422  0.08487182    -0.88100
O688        O  0.93539991  0.97239311  0.92939776    -0.86600
O689        O  0.01961725  0.10268685  0.98318025    -0.86700
O690        O  0.04709743  0.05421220  0.06061457    -0.86400
O691        O  0.96346527  0.92336888  0.00469076    -0.86200
O692        O  0.90171879  0.00414278  0.02228251    -0.86600
O693        O  0.95243500  0.07853758  0.05156759    -0.86000
O694        O  0.90998153  0.96632492  0.99208045    -0.87100
O695        O  0.99801837  0.09511252  0.04202945    -0.86300
O696        O  0.94421153  0.01863822  0.91584869    -0.86700
O697        O  0.99748315  0.93165152  0.03966823    -0.86400
O698        O  0.04043561  0.00745900  0.07495470    -0.86000
O699        O  0.98876206  0.09188981  0.94653152    -0.86400
O700        O  0.91197795  0.06071288  0.00400701    -0.86700
O701        O  0.94474162  0.01335301  0.07650902    -0.88100
Zr702      Zr  0.97266541  0.04314514  0.95087003     2.83100
Zr703      Zr  0.01063177  0.98233314  0.04077385     2.83500
Zr704      Zr  0.95952878  0.96766580  0.97713800     2.84100
Zr705      Zr  0.02244408  0.05964200  0.01385288     2.83400
Zr706      Zr  0.94687716  0.03125740  0.02765369     2.84200
O707        O  0.99437048  0.02975866  0.04333788    -1.08600
O708        O  0.94379961  0.01467110  0.98024186    -1.08100
C709        C  0.90785747  0.06936242  0.97811469     1.06500
C710        C  0.95938881  0.99636011  0.09251208     1.09100
C711        C  0.93300009  0.99379214  0.91165981     1.06700
C712        C  0.00553931  0.10927475  0.96016915     1.07000
C713        C  0.05046776  0.03308675  0.07840025     1.06600
C714        C  0.98025920  0.91526651  0.02511750     1.06200
C715        C  0.89348864  0.98210773  0.00731317     1.06600
C716        C  0.97277115  0.09782685  0.05262363     1.06100
H717        H  0.95071050  0.97136794  0.03702007     0.32800
O718        O  0.96256877  0.98360521  0.02511204    -1.29700
H719        H  0.96775951  0.07966181  0.99782959     0.32800
O720        O  0.97497969  0.06039560  0.99779067    -1.31100
C721        C  0.48964544  0.39652127  0.24109148    -0.12100
C722        C  0.46245670  0.40702682  0.24821218     0.03400
C723        C  0.45868914  0.42222598  0.27377421    -0.12600
C724        C  0.48176046  0.42720760  0.29246279     0.18300
C725        C  0.50914084  0.41750973  0.28490387    -0.09600
C726        C  0.51288918  0.40226840  0.25936499    -0.02600
H727        H  0.43753345  0.42943551  0.27952971     0.04800
C728        C  0.47655946  0.44021376  0.32085430     0.20300
H729        H  0.53377085  0.39386909  0.25430374     0.10000
C730        C  0.46472198  0.42309680  0.34271375    -0.16000
C731        C  0.46277544  0.43347227  0.37082826     0.03000
C732        C  0.47233811  0.46157023  0.37719977    -0.11300
C733        C  0.48282921  0.47908342  0.35502313    -0.01300
C734        C  0.48500919  0.46864189  0.32700812    -0.06500
H735        H  0.45800200  0.40123906  0.33809716     0.06000
H736        H  0.49087112  0.50044624  0.35980424     0.09400
Br737      Br  0.54156386  0.42283466  0.30977779    -0.06200
Br738      Br  0.42941175  0.39961559  0.22491780    -0.03100
Br739      Br  0.44747664  0.40840385  0.39984994    -0.00300
Br740      Br  0.50085350  0.49350817  0.29818514    -0.04700
C741        C  0.48461559  0.38477451  0.75596068    -0.12100
C742        C  0.50489322  0.38451163  0.73373799     0.03400
C743        C  0.49907940  0.39817130  0.70783303    -0.12600
C744        C  0.47324015  0.41238265  0.70354192     0.18300
C745        C  0.45321440  0.41356389  0.72604191    -0.09600
C746        C  0.45903565  0.39977076  0.75214577    -0.02600
H747        H  0.51484557  0.39771264  0.69083198     0.04800
C748        C  0.46876530  0.42639444  0.67550152     0.20300
H749        H  0.44327790  0.40004207  0.76915811     0.10000
C750        C  0.45430070  0.41149328  0.65345180    -0.16000
C751        C  0.45534394  0.42138942  0.62497362     0.03000
C752        C  0.47093854  0.44669506  0.61845074    -0.11300
C753        C  0.48412962  0.46214803  0.64094080    -0.01300
C754        C  0.48338006  0.45211928  0.66909203    -0.06500
H755        H  0.44361622  0.39125879  0.65813437     0.06000
H756        H  0.49596163  0.48181265  0.63645954     0.09400
Br757      Br  0.41793753  0.43362067  0.72196012    -0.06200
Br758      Br  0.54118034  0.36637521  0.73791802    -0.03100
Br759      Br  0.43810341  0.39790722  0.59567400    -0.00300
Br760      Br  0.50446576  0.47320638  0.69777756    -0.04700
C761        C  0.99796638  0.75493401  0.10674928    -0.12100
C762        C  0.01468449  0.78017547  0.10973940     0.03400
C763        C  0.00961023  0.80347851  0.09193273    -0.12600
C764        C  0.98883913  0.80192953  0.07018261     0.18300
C765        C  0.97412818  0.77575320  0.06528395    -0.09600
C766        C  0.97854588  0.75256123  0.08380624    -0.02600
H767        H  0.02193347  0.82309529  0.09519106     0.04800
C768        C  0.98389947  0.82816652  0.05315995     0.20300
H769        H  0.96637933  0.73288747  0.08060614     0.10000
C770        C  0.00762624  0.84120380  0.03983549    -0.16000
C771        C  0.00648034  0.86935912  0.03001613     0.03000
C772        C  0.98078993  0.88459552  0.03211069    -0.11300
C773        C  0.95636314  0.87098211  0.04339985    -0.01300
C774        C  0.95792023  0.84319927  0.05466809    -0.06500
H775        H  0.02777782  0.83005576  0.03886227     0.06000
H776        H  0.93667467  0.88276260  0.04546649     0.09400
Br777      Br  0.94875656  0.77029676  0.03325602    -0.06200
Br778      Br  0.04580993  0.78364956  0.13664674    -0.03100
Br779      Br  0.04111855  0.88642964  0.01529499    -0.00300
Br780      Br  0.92533604  0.82876946  0.07544759    -0.04700
C781        C  0.96717338  0.12643822  0.06486596    -0.12100
C782        C  0.96151948  0.13088056  0.09416576     0.03400
C783        C  0.96282535  0.15884217  0.10550395    -0.12600
C784        C  0.96911516  0.18255600  0.08779450     0.18300
C785        C  0.97297058  0.17814739  0.05823340    -0.09600
C786        C  0.97218802  0.15033281  0.04709290    -0.02600
H787        H  0.95969728  0.16202739  0.12829260     0.04800
C788        C  0.97375471  0.21142238  0.10056076     0.20300
H789        H  0.97658005  0.14722272  0.02448552     0.10000
C790        C  0.00058181  0.21843050  0.11250545    -0.16000
C791        C  0.00594600  0.24556825  0.12446200     0.03000
C792        C  0.98416993  0.26610053  0.12500958    -0.11300
C793        C  0.95759019  0.25934844  0.11241077    -0.01300
C794        C  0.95237921  0.23236936  0.09996244    -0.06500
H795        H  0.01743750  0.20274889  0.11241742     0.06000
H796        H  0.94048955  0.27465219  0.11317408     0.09400
Br797      Br  0.98102891  0.20936300  0.03252847    -0.06200
Br798      Br  0.95404256  0.09935387  0.11959707    -0.03100
Br799      Br  0.04343410  0.25399701  0.13947065    -0.00300
Br800      Br  0.91569612  0.22479341  0.08278961    -0.04700
C801        C  0.50451151  0.63613550  0.24553604    -0.12100
C802        C  0.48808447  0.64134524  0.27037177     0.03400
C803        C  0.49434620  0.62727493  0.29588601    -0.12600
C804        C  0.51547322  0.60632736  0.29720490     0.18300
C805        C  0.53012523  0.59904017  0.27190488    -0.09600
C806        C  0.52494265  0.61431339  0.24643011    -0.02600
H807        H  0.48168969  0.63186830  0.31475107     0.04800
C808        C  0.51768178  0.58998973  0.32440152     0.20300
H809        H  0.53697083  0.60915247  0.22741946     0.10000
C810        C  0.49301468  0.57538341  0.33324476    -0.16000
C811        C  0.48969348  0.56590888  0.36129868     0.03000
C812        C  0.51244298  0.56957942  0.38161335    -0.11300
C813        C  0.53819936  0.58246999  0.37200716    -0.01300
C814        C  0.54074660  0.59310496  0.34380223    -0.06500
H815        H  0.47516254  0.57307629  0.31845064     0.06000
H816        H  0.55600344  0.58533684  0.38670892     0.09400
Br817      Br  0.55592065  0.56752544  0.27074027    -0.06200
Br818      Br  0.45475321  0.66505160  0.27047764    -0.03100
Br819      Br  0.45206503  0.54993450  0.36888578    -0.00300
Br820      Br  0.57516376  0.61338944  0.33338685    -0.04700
C821        C  0.50862526  0.62363088  0.76079776    -0.12100
C822        C  0.49185208  0.59861997  0.75632284     0.03400
C823        C  0.49665375  0.58167120  0.73211102    -0.12600
C824        C  0.51785264  0.58931351  0.71217309     0.18300
C825        C  0.53589671  0.61305254  0.71765502    -0.09600
C826        C  0.53146358  0.62971988  0.74203349    -0.02600
H827        H  0.48236135  0.56368818  0.72763623     0.04800
C828        C  0.51613586  0.57700493  0.68316203     0.20300
H829        H  0.54477734  0.64867033  0.74533818     0.10000
C830        C  0.49422239  0.58659734  0.66537495    -0.16000
C831        C  0.49184649  0.57741838  0.63707490     0.03000
C832        C  0.51194028  0.55776816  0.62588260    -0.11300
C833        C  0.53375316  0.54782227  0.64416031    -0.01300
C834        C  0.53604952  0.55745838  0.67256349    -0.06500
H835        H  0.47892195  0.60176170  0.67360155     0.06000
H836        H  0.54930217  0.53275717  0.63632254     0.09400
Br837      Br  0.56427481  0.62572369  0.69055627    -0.06200
Br838      Br  0.45979603  0.58836204  0.77993934    -0.03100
Br839      Br  0.45985354  0.59279033  0.61624095    -0.00300
Br840      Br  0.56660173  0.54369656  0.69609726    -0.04700
C841        C  0.99994944  0.27100874  0.87349537    -0.12100
C842        C  0.02186780  0.25112389  0.86807270     0.03400
C843        C  0.02449773  0.22690891  0.88540489    -0.12600
C844        C  0.00604303  0.22219059  0.90853365     0.18300
C845        C  0.98527206  0.24262730  0.91509894    -0.09600
C846        C  0.98233252  0.26682823  0.89760967    -0.02600
H847        H  0.04069280  0.21129437  0.88046567     0.04800
C848        C  0.00612787  0.19392971  0.92259322     0.20300
H849        H  0.96574049  0.28202797  0.90246028     0.10000
C850        C  0.02266856  0.18914394  0.94724065    -0.16000
C851        C  0.02346402  0.16186284  0.96002156     0.03000
C852        C  0.00744767  0.13880002  0.94782267    -0.11300
C853        C  0.99131635  0.14417238  0.92273512    -0.01300
C854        C  0.99047739  0.17119718  0.91035145    -0.06500
H855        H  0.03501838  0.20669228  0.95651385     0.06000
H856        H  0.97880035  0.12734805  0.91243964     0.09400
Br857      Br  0.95992381  0.23756096  0.94706772    -0.06200
Br858      Br  0.05037320  0.25645624  0.83893606    -0.03100
Br859      Br  0.04685227  0.15817347  0.99370970    -0.00300
Br860      Br  0.96730371  0.17606297  0.87661457    -0.04700
C861        C  0.00418076  0.75911007  0.87383798    -0.12100
C862        C  0.03045472  0.76735456  0.88658479     0.03400
C863        C  0.03425561  0.79516521  0.89731744    -0.12600
C864        C  0.01214917  0.81497506  0.89555618     0.18300
C865        C  0.98555771  0.80650852  0.88384266    -0.09600
C866        C  0.98179507  0.77880181  0.87297270    -0.02600
H867        H  0.05458304  0.80146424  0.90683916     0.04800
C868        C  0.01619392  0.84376954  0.90796406     0.20300
H869        H  0.96167166  0.77290847  0.86277996     0.10000
C870        C  0.02499639  0.86692697  0.89059538    -0.16000
C871        C  0.02499105  0.89507217  0.90132785     0.03000
C872        C  0.01590954  0.89998524  0.92963021    -0.11300
C873        C  0.00796758  0.87659803  0.94697118    -0.01300
C874        C  0.00845343  0.84868487  0.93655120    -0.06500
H875        H  0.03066557  0.86321336  0.86840035     0.06000
H876        H  0.00010053  0.88019535  0.96845111     0.09400
Br877      Br  0.95405335  0.83233979  0.88183690    -0.06200
Br878      Br  0.06247232  0.74241355  0.88829170    -0.03100
Br879      Br  0.03419221  0.92619752  0.87591665    -0.00300
Br880      Br  0.99644101  0.81803357  0.96148417    -0.04700
C881        C  0.03498502  0.36333265  0.86990052    -0.12100
C882        C  0.05403161  0.35118175  0.88988370     0.03400
C883        C  0.07490117  0.36834646  0.90313053    -0.12600
C884        C  0.07688126  0.39770298  0.89731715     0.18300
C885        C  0.05721199  0.41020056  0.87839180    -0.09600
C886        C  0.03662509  0.39295414  0.86459033    -0.02600
H887        H  0.08998181  0.35868497  0.91780117     0.04800
C888        C  0.10014318  0.41465233  0.91075977     0.20300
H889        H  0.02181778  0.40267163  0.84969215     0.10000
C890        C  0.12315968  0.42427303  0.89388604    -0.16000
C891        C  0.14609245  0.43953036  0.90618859     0.03000
C892        C  0.14624127  0.44502119  0.93596704    -0.11300
C893        C  0.12292463  0.43564583  0.95267177    -0.01300
C894        C  0.10003470  0.42050897  0.94031486    -0.06500
H895        H  0.12319411  0.41995957  0.87104226     0.06000
H896        H  0.12259840  0.43992315  0.97551437     0.09400
Br897      Br  0.05734505  0.45074312  0.87158015    -0.06200
Br898      Br  0.05425690  0.31125549  0.89902730    -0.03100
Br899      Br  0.17536905  0.45397555  0.88098644    -0.00300
Br900      Br  0.06869389  0.40888988  0.96436800    -0.04700
C901        C  0.03858832  0.35319983  0.12737620    -0.12100
C902        C  0.03326307  0.37297782  0.10495464     0.03400
C903        C  0.05587484  0.38909031  0.09312943    -0.12600
C904        C  0.08418574  0.38565972  0.10238222     0.18300
C905        C  0.08973101  0.36561518  0.12420814    -0.09600
C906        C  0.06715888  0.34969491  0.13636190    -0.02600
H907        H  0.05128511  0.40469144  0.07659003     0.04800
C908        C  0.10741284  0.40329023  0.08901001     0.20300
H909        H  0.07204908  0.33442850  0.15310872     0.10000
C910        C  0.12423487  0.42186358  0.10612546    -0.16000
C911        C  0.14615587  0.43878423  0.09405735     0.03000
C912        C  0.15102906  0.43787709  0.06429441    -0.11300
C913        C  0.13398556  0.41978828  0.04709766    -0.01300
C914        C  0.11253286  0.40238429  0.05918455    -0.06500
H915        H  0.12023695  0.42326298  0.12895973     0.06000
H916        H  0.13775095  0.41880779  0.02419345     0.09400
Br917      Br  0.12779323  0.35861046  0.13783026    -0.06200
Br918      Br  0.99614053  0.38085282  0.08968673    -0.03100
Br919      Br  0.16817147  0.46359455  0.11876658    -0.00300
Br920      Br  0.09180123  0.37681324  0.03412474    -0.04700
C921        C  0.05172018  0.67334812  0.12647829    -0.12100
C922        C  0.06598305  0.68086843  0.10089080     0.03400
C923        C  0.08599944  0.66225397  0.08923180    -0.12600
C924        C  0.09162389  0.63592930  0.10241897     0.18300
C925        C  0.07736424  0.62838561  0.12789874    -0.09600
C926        C  0.05798017  0.64727912  0.13996104    -0.02600
H927        H  0.09731332  0.66834359  0.06984964     0.04800
C928        C  0.11321165  0.61703340  0.08997801     0.20300
H929        H  0.04698455  0.64110403  0.15948442     0.10000
C930        C  0.13865392  0.61249288  0.10517486    -0.16000
C931        C  0.15976796  0.59474662  0.09420977     0.03000
C932        C  0.15528600  0.58090018  0.06755141    -0.11300
C933        C  0.12962712  0.58552593  0.05250775    -0.01300
C934        C  0.10884965  0.60363973  0.06329781    -0.06500
H935        H  0.14212055  0.62297562  0.12567100     0.06000
H936        H  0.12592678  0.57559440  0.03178098     0.09400
Br937      Br  0.08243004  0.59187226  0.14607122    -0.06200
Br938      Br  0.06032882  0.71676150  0.08181869    -0.03100
Br939      Br  0.19357849  0.59028412  0.11718337    -0.00300
Br940      Br  0.07501166  0.60929388  0.04068746    -0.04700
C941        C  0.04895728  0.67071650  0.86601136    -0.12100
C942        C  0.07865420  0.67196629  0.85995830     0.03400
C943        C  0.09776285  0.65496977  0.87560477    -0.12600
C944        C  0.08822097  0.63703296  0.89797432     0.18300
C945        C  0.05891751  0.63721704  0.90520699    -0.09600
C946        C  0.03966034  0.65325683  0.88889426    -0.02600
H947        H  0.12035474  0.65598488  0.87044510     0.04800
C948        C  0.10931014  0.61911092  0.91386733     0.20300
H949        H  0.01718381  0.65221217  0.89446637     0.10000
C950        C  0.13308415  0.63240166  0.92722329    -0.16000
C951        C  0.15380787  0.61625278  0.94161200     0.03000
C952        C  0.15099452  0.58607000  0.94296638    -0.11300
C953        C  0.12705315  0.57284763  0.93003624    -0.01300
C954        C  0.10670069  0.58889559  0.91512928    -0.06500
H955        H  0.13550511  0.65552372  0.92651342     0.06000
H956        H  0.12480821  0.54969797  0.93042952     0.09400
Br957      Br  0.04426632  0.61793033  0.93860504    -0.06200
Br958      Br  0.09514843  0.69817251  0.83267583    -0.03100
Br959      Br  0.18472643  0.63666988  0.96020154    -0.00300
Br960      Br  0.07733046  0.56797631  0.89477234    -0.04700
C961        C  0.44308874  0.38204423  0.84226480    -0.12100
C962        C  0.44894475  0.40333291  0.86311318     0.03400
C963        C  0.42637382  0.41714667  0.87657775    -0.12600
C964        C  0.39795001  0.41061230  0.86930081     0.18300
C965        C  0.39203279  0.39087045  0.84721432    -0.09600
C966        C  0.41454910  0.37646255  0.83414830    -0.02600
H967        H  0.43095793  0.43257045  0.89343477     0.04800
C968        C  0.37511294  0.42302981  0.88681068     0.20300
H969        H  0.40977622  0.36082023  0.81755558     0.10000
C970        C  0.36065611  0.44725414  0.87700536    -0.16000
C971        C  0.34099214  0.46099225  0.89471377     0.03000
C972        C  0.33555286  0.45017805  0.92243137    -0.11300
C973        C  0.34985751  0.42592030  0.93209411    -0.01300
C974        C  0.36961280  0.41236482  0.91454607    -0.06500
H975        H  0.36530827  0.45592203  0.85593652     0.06000
H976        H  0.34569339  0.41756194  0.95339971     0.09400
Br977      Br  0.35369469  0.38268378  0.83456202    -0.06200
Br978      Br  0.48676017  0.41355052  0.87582485    -0.03100
Br979      Br  0.32376590  0.49553068  0.88108114    -0.00300
Br980      Br  0.38891229  0.37958316  0.92952206    -0.04700
C981        C  0.34044033  0.57363272  0.92749863    -0.12100
C982        C  0.36594218  0.55964583  0.91973245     0.03400
C983        C  0.38524721  0.57308174  0.90114531    -0.12600
C984        C  0.38067875  0.60094173  0.89116794     0.18300
C985        C  0.35553255  0.61515112  0.89911506    -0.09600
C986        C  0.33551254  0.60131361  0.91678714    -0.02600
H987        H  0.40439888  0.56190199  0.89486244     0.04800
C988        C  0.40291388  0.61481351  0.87317357     0.20300
H989        H  0.31630233  0.61256391  0.92273813     0.10000
C990        C  0.39625191  0.62315957  0.84502164    -0.16000
C991        C  0.41707617  0.63596813  0.82748728     0.03000
C992        C  0.44510337  0.64017209  0.83804813    -0.11300
C993        C  0.45194960  0.63113284  0.86580821    -0.01300
C994        C  0.43113142  0.61872787  0.88346112    -0.06500
H995        H  0.37484303  0.61954558  0.83664403     0.06000
H996        H  0.47347005  0.63441848  0.87405483     0.09400
Br997      Br  0.34821560  0.65390744  0.88778907    -0.06200
Br998      Br  0.37625150  0.52225409  0.93315197    -0.03100
Br999      Br  0.40664052  0.64605086  0.78897986    -0.00300
Br1000     Br  0.44221410  0.60868386  0.92182875    -0.04700
C1001       C  0.45280794  0.63965536  0.15804966    -0.12100
C1002       C  0.43791931  0.61546073  0.16882570     0.03400
C1003       C  0.41746829  0.60121698  0.15161577    -0.12600
C1004       C  0.41140940  0.61088007  0.12372694     0.18300
C1005       C  0.42626605  0.63510518  0.11306482    -0.09600
C1006       C  0.44679903  0.64910942  0.13010204    -0.02600
H1007       H  0.40575875  0.58294920  0.16023915     0.04800
C1008       C  0.38864771  0.59646702  0.10644354     0.20300
H1009       H  0.45802808  0.66770720  0.12153767     0.10000
C1010       C  0.36326041  0.61107725  0.10087920    -0.16000
C1011       C  0.34170910  0.59895454  0.08362526     0.03000
C1012       C  0.34512456  0.57128444  0.07171397    -0.11300
C1013       C  0.37067010  0.55666619  0.07737020    -0.01300
C1014       C  0.39226253  0.56899216  0.09461356    -0.06500
H1015       H  0.36041610  0.63234656  0.10966631     0.06000
H1016       H  0.37377074  0.53544055  0.06859290     0.09400
Br1017     Br  0.41928092  0.64992500  0.07531916    -0.06200
Br1018     Br  0.44294528  0.60253014  0.20752407    -0.03100
Br1019     Br  0.30916411  0.62241403  0.07579327    -0.00300
Br1020     Br  0.42671364  0.54800386  0.10075499    -0.04700
C1021       C  0.34184005  0.44811896  0.07076383    -0.12100
C1022       C  0.35016065  0.41950553  0.06761980     0.03400
C1023       C  0.37105593  0.40834672  0.08572728    -0.12600
C1024       C  0.38406551  0.42545149  0.10695350     0.18300
C1025       C  0.37599416  0.45424314  0.10995872    -0.09600
C1026       C  0.35498837  0.46538842  0.09182473    -0.02600
H1027       H  0.37757194  0.38633321  0.08294153     0.04800
C1028       C  0.40688206  0.41283601  0.12459407     0.20300
H1029       H  0.34869574  0.48750810  0.09431590     0.10000
C1030       C  0.43540433  0.42095921  0.11957713    -0.16000
C1031       C  0.45785138  0.40714302  0.13355742     0.03000
C1032       C  0.45179785  0.38418730  0.15259298    -0.11300
C1033       C  0.42306143  0.37620649  0.15738456    -0.01300
C1034       C  0.40075169  0.39071112  0.14414695    -0.06500
H1035       H  0.44022391  0.43776697  0.10420443     0.06000
H1036       H  0.41780184  0.35923350  0.17241035     0.09400
Br1037     Br  0.39242245  0.47872096  0.13891491    -0.06200
Br1038     Br  0.33495617  0.39549901  0.03780817    -0.03100
Br1039     Br  0.49577694  0.41982441  0.12370497    -0.00300
Br1040     Br  0.36221368  0.38055588  0.15450585    -0.04700
C1041       C  0.65031626  0.45135440  0.06934974    -0.12100
C1042       C  0.62407814  0.46395990  0.07705259     0.03400
C1043       C  0.60530637  0.44946118  0.09553535    -0.12600
C1044       C  0.61191399  0.42239573  0.10640056     0.18300
C1045       C  0.63758237  0.40941010  0.09831082    -0.09600
C1046       C  0.65662014  0.42397843  0.08018804    -0.02600
H1047       H  0.58534792  0.45935074  0.10150239     0.04800
C1048       C  0.59105724  0.40771406  0.12520230     0.20300
H1049       H  0.67643387  0.41370630  0.07442306     0.10000
C1050       C  0.57330013  0.38628218  0.11347109    -0.16000
C1051       C  0.55184866  0.37327565  0.12994830     0.03000
C1052       C  0.54815247  0.38157977  0.15882655    -0.11300
C1053       C  0.56586391  0.40307890  0.17055174    -0.01300
C1054       C  0.58726593  0.41618343  0.15393175    -0.06500
H1055       H  0.57563836  0.38025041  0.09115747     0.06000
H1056       H  0.56299523  0.40968155  0.19263299     0.09400
Br1057     Br  0.64761605  0.37197421  0.11163384    -0.06200
Br1058     Br  0.61273538  0.50121760  0.06447521    -0.03100
Br1059     Br  0.52644199  0.34648510  0.11104439    -0.00300
Br1060     Br  0.61076536  0.44554725  0.17118955    -0.04700
C1061       C  0.65429039  0.58509277  0.06734563    -0.12100
C1062       C  0.66241189  0.60671333  0.08749976     0.03400
C1063       C  0.64165526  0.61947590  0.10475967    -0.12600
C1064       C  0.61269119  0.61183464  0.10218096     0.18300
C1065       C  0.60427634  0.59167075  0.08128199    -0.09600
C1066       C  0.62487939  0.57858371  0.06414986    -0.02600
H1067       H  0.64812979  0.63565383  0.12025710     0.04800
C1068       C  0.59134122  0.62555136  0.12094926     0.20300
H1069       H  0.61769919  0.56294350  0.04847078     0.10000
C1070       C  0.57339353  0.64636660  0.10936391    -0.16000
C1071       C  0.55185691  0.65864739  0.12591110     0.03000
C1072       C  0.54793254  0.65007418  0.15474531    -0.11300
C1073       C  0.56620334  0.62948370  0.16640103    -0.01300
C1074       C  0.58795531  0.61742201  0.14985430    -0.06500
H1075       H  0.57587252  0.65273233  0.08714220     0.06000
H1076       H  0.56387243  0.62306254  0.18854628     0.09400
Br1077     Br  0.56482260  0.58078185  0.07600448    -0.06200
Br1078     Br  0.70087317  0.62132602  0.09244981    -0.03100
Br1079     Br  0.52749601  0.68570884  0.10726078    -0.00300
Br1080     Br  0.61230995  0.58968139  0.16740941    -0.04700
C1081       C  0.65133659  0.58467307  0.93089545    -0.12100
C1082       C  0.62281923  0.58716896  0.94090393     0.03400
C1083       C  0.60225357  0.60002640  0.92354939    -0.12600
C1084       C  0.60949958  0.61128292  0.89666377     0.18300
C1085       C  0.63811961  0.61075706  0.88751883    -0.09600
C1086       C  0.65862296  0.59718970  0.90435209    -0.02600
H1087       H  0.58038660  0.60130434  0.93109284     0.04800
C1088       C  0.58685262  0.62392087  0.87883365     0.20300
H1089       H  0.68034576  0.59626998  0.89638886     0.10000
C1090       C  0.57332628  0.64866808  0.88849335    -0.16000
C1091       C  0.55100741  0.66069346  0.87280421     0.03000
C1092       C  0.54228606  0.64819763  0.84653845    -0.11300
C1093       C  0.55565325  0.62311338  0.83718239    -0.01300
C1094       C  0.57748118  0.61073791  0.85325786    -0.06500
H1095       H  0.57985500  0.65836657  0.90865135     0.06000
H1096       H  0.54906995  0.61297291  0.81727014     0.09400
Br1097     Br  0.65039512  0.62915000  0.85273416    -0.06200
Br1098     Br  0.61025978  0.57522844  0.97838513    -0.03100
Br1099     Br  0.53190167  0.69234977  0.88995188    -0.00300
Br1100     Br  0.59268814  0.57503728  0.84024991    -0.04700
C1101       C  0.64761014  0.45341844  0.92516708    -0.12100
C1102       C  0.62109409  0.46628100  0.91882103     0.03400
C1103       C  0.60089755  0.45171253  0.90172356    -0.12600
C1104       C  0.60665292  0.42461324  0.89034424     0.18300
C1105       C  0.63349087  0.41233450  0.89544474    -0.09600
C1106       C  0.65351441  0.42656390  0.91287686    -0.02600
H1107       H  0.58051002  0.46156767  0.89729264     0.04800
C1108       C  0.58419900  0.40933612  0.87362381     0.20300
H1109       H  0.67386367  0.41645052  0.91683480     0.10000
C1110       C  0.57610910  0.41981121  0.84665722    -0.16000
C1111       C  0.55458655  0.40602251  0.83052675     0.03000
C1112       C  0.54107378  0.38089580  0.84124606    -0.11300
C1113       C  0.54914707  0.37074834  0.86846868    -0.01300
C1114       C  0.57010467  0.38494843  0.88477119    -0.06500
H1115       H  0.58662206  0.43883419  0.83813268     0.06000
H1116       H  0.53839211  0.35214894  0.87758626     0.09400
Br1117     Br  0.64410523  0.37658243  0.87840092    -0.06200
Br1118     Br  0.61161148  0.50428471  0.93094261    -0.03100
Br1119     Br  0.54560413  0.42233927  0.79392055    -0.00300
Br1120     Br  0.57747348  0.37132571  0.92290242    -0.04700
C1121       C  0.94189725  0.35619918  0.13035920    -0.12100
C1122       C  0.93882053  0.38562298  0.13648510     0.03400
C1123       C  0.91757005  0.40124340  0.12267646    -0.12600
C1124       C  0.89958705  0.38821469  0.10225334     0.18300
C1125       C  0.90344139  0.35918968  0.09515689    -0.09600
C1126       C  0.92447832  0.34340347  0.10926287    -0.02600
H1127       H  0.91542406  0.42384144  0.12743590     0.04800
C1128       C  0.87791128  0.40582143  0.08775700     0.20300
H1129       H  0.92707626  0.32108010  0.10385270     0.10000
C1130       C  0.88332723  0.41583968  0.05996784    -0.16000
C1131       C  0.86402124  0.43375226  0.04600474     0.03000
C1132       C  0.83860465  0.44202336  0.06002104    -0.11300
C1133       C  0.83323589  0.43171331  0.08790988    -0.01300
C1134       C  0.85267119  0.41385737  0.10179741    -0.06500
H1135       H  0.90275692  0.40967757  0.04909082     0.06000
H1136       H  0.81386444  0.43761462  0.09902600     0.09400
Br1137     Br  0.88034958  0.34024511  0.06660350    -0.06200
Br1138     Br  0.96500199  0.40625659  0.16107703    -0.03100
Br1139     Br  0.87317425  0.44457331  0.00731205    -0.00300
Br1140     Br  0.84368424  0.40039364  0.13966619    -0.04700
C1141       C  0.83592413  0.44080406  0.93322638    -0.12100
C1142       C  0.83625717  0.41141725  0.94015892     0.03400
C1143       C  0.85683725  0.39379621  0.92792301    -0.12600
C1144       C  0.87709069  0.40508843  0.90870134     0.18300
C1145       C  0.87632956  0.43436660  0.90132543    -0.09600
C1146       C  0.85608227  0.45210139  0.91395926    -0.02600
H1147       H  0.85725710  0.37129521  0.93362923     0.04800
C1148       C  0.89873378  0.38601720  0.89635633     0.20300
H1149       H  0.85574476  0.47464119  0.90837997     0.10000
C1150       C  0.89026375  0.36544362  0.87602167    -0.16000
C1151       C  0.91049034  0.34826153  0.86253390     0.03000
C1152       C  0.93989327  0.35179532  0.86926513    -0.11300
C1153       C  0.94802446  0.37149984  0.89069461    -0.01300
C1154       C  0.92772833  0.38838461  0.90433757    -0.06500
H1155       H  0.86784712  0.36303718  0.87033989     0.06000
H1156       H  0.97038388  0.37455210  0.89626694     0.09400
Br1157     Br  0.90174203  0.45074076  0.87327806    -0.06200
Br1158     Br  0.81000698  0.39477441  0.96734855    -0.03100
Br1159     Br  0.89635050  0.31981363  0.83603191    -0.00300
Br1160     Br  0.94058099  0.41443639  0.93370949    -0.04700
C1161       C  0.84393642  0.58305567  0.93135366    -0.12100
C1162       C  0.87333410  0.57574187  0.93338657     0.03400
C1163       C  0.89436759  0.59398319  0.92172203    -0.12600
C1164       C  0.88702542  0.61910839  0.90723892     0.18300
C1165       C  0.85796969  0.62556536  0.90360402    -0.09600
C1166       C  0.83683322  0.60794149  0.91590906    -0.02600
H1167       H  0.91669833  0.58828236  0.92353336     0.04800
C1168       C  0.90994116  0.63682490  0.89387721     0.20300
H1169       H  0.81467440  0.61387799  0.91324496     0.10000
C1170       C  0.92367346  0.62613765  0.86960585    -0.16000
C1171       C  0.94514412  0.64204129  0.85581238     0.03000
C1172       C  0.95354288  0.66936581  0.86650474    -0.11300
C1173       C  0.94031454  0.67970064  0.89138658    -0.01300
C1174       C  0.91846786  0.66377121  0.90494129    -0.06500
H1175       H  0.91745361  0.60528669  0.86119302     0.06000
H1176       H  0.94645216  0.70053778  0.89985962     0.09400
Br1177     Br  0.84609996  0.65740952  0.88070968    -0.06200
Br1178     Br  0.88701738  0.54072850  0.95001182    -0.03100
Br1179     Br  0.96261593  0.62433264  0.82313026    -0.00300
Br1180     Br  0.90076435  0.67958599  0.93834736    -0.04700
C1181       C  0.84461629  0.58260382  0.05991093    -0.12100
C1182       C  0.84464846  0.59073353  0.08909234     0.03400
C1183       C  0.86738607  0.60735739  0.09999316    -0.12600
C1184       C  0.89020382  0.61588805  0.08230293     0.18300
C1185       C  0.89055871  0.60721930  0.05346509    -0.09600
C1186       C  0.86787072  0.59074842  0.04249158    -0.02600
H1187       H  0.86735351  0.61359522  0.12238798     0.04800
C1188       C  0.91345782  0.63375969  0.09447035     0.20300
H1189       H  0.86821455  0.58462355  0.02006323     0.10000
C1190       C  0.93632853  0.62050379  0.10838343    -0.16000
C1191       C  0.95778395  0.63696002  0.12173000     0.03000
C1192       C  0.95609562  0.66704019  0.12167358    -0.11300
C1193       C  0.93364867  0.68029091  0.10709708    -0.01300
C1194       C  0.91250124  0.66385715  0.09326877    -0.06500
H1195       H  0.93735862  0.59732731  0.10898736     0.06000
H1196       H  0.93235491  0.70344225  0.10682069     0.09400
Br1197     Br  0.92151146  0.61742102  0.02832855    -0.06200
Br1198     Br  0.81542635  0.57832295  0.11542832    -0.03100
Br1199     Br  0.98893334  0.61747059  0.13949297    -0.00300
Br1200     Br  0.88268260  0.68326772  0.07311767    -0.04700
C1201       C  0.03443521  0.02805931  0.86939238    -0.12100
C1202       C  0.01696384  0.03377423  0.84525313     0.03400
C1203       C  0.02844442  0.03173682  0.81755397    -0.12600
C1204       C  0.05691630  0.02368121  0.81355216     0.18300
C1205       C  0.07423755  0.01796568  0.83741893    -0.09600
C1206       C  0.06316054  0.02058085  0.86484999    -0.02600
H1207       H  0.01512050  0.03623583  0.79908966     0.04800
C1208       C  0.06949695  0.02273880  0.78474121     0.20300
H1209       H  0.07719990  0.01609379  0.88277756     0.10000
C1210       C  0.08885689  0.04462107  0.77726254    -0.16000
C1211       C  0.10703159  0.04149106  0.75391295     0.03000
C1212       C  0.10564285  0.01614461  0.73734054    -0.11300
C1213       C  0.08454005  0.99531085  0.74334557    -0.01300
C1214       C  0.06660029  0.99834809  0.76713936    -0.06500
H1215       H  0.09097207  0.06350979  0.79069370     0.06000
H1216       H  0.08308911  0.97598971  0.73048844     0.09400
Br1217     Br  0.11309213  0.00556497  0.83364010    -0.06200
Br1218     Br  0.97723825  0.04292555  0.84809615    -0.03100
Br1219     Br  0.13307438  0.07272205  0.74573952    -0.00300
Br1220     Br  0.04023711  0.96780240  0.77627254    -0.04700
C1221       C  0.11842331  0.02158098  0.24856781    -0.12100
C1222       C  0.09571508  0.00429806  0.23784259     0.03400
C1223       C  0.08461245  0.00954820  0.21033646    -0.12600
C1224       C  0.09533764  0.03217427  0.19337251     0.18300
C1225       C  0.11608609  0.05093097  0.20508574    -0.09600
C1226       C  0.12749951  0.04547609  0.23228294    -0.02600
H1227       H  0.06818531  0.99530915  0.20170214     0.04800
C1228       C  0.08633198  0.03452110  0.16289002     0.20300
H1229       H  0.14432885  0.05954190  0.24040222     0.10000
C1230       C  0.06936708  0.05744085  0.15379763    -0.16000
C1231       C  0.05949646  0.05908594  0.12534357     0.03000
C1232       C  0.06643192  0.03738905  0.10558407    -0.11300
C1233       C  0.08469047  0.01539748  0.11445011    -0.01300
C1234       C  0.09458363  0.01381276  0.14268828    -0.06500
H1235       H  0.06309395  0.07362913  0.16910398     0.06000
H1236       H  0.09024987  0.99852175  0.09957417     0.09400
Br1237     Br  0.13087358  0.08318952  0.18398808    -0.06200
Br1238     Br  0.08015355  0.97219917  0.25850204    -0.03100
Br1239     Br  0.03455637  0.08978741  0.11542777    -0.00300
Br1240     Br  0.11886965  0.98251073  0.15268497    -0.04700
C1241       C  0.20518479  0.50518606  0.28255254    -0.12100
C1242       C  0.22098112  0.52830998  0.27005932     0.03400
C1243       C  0.22917268  0.52722638  0.24130293    -0.12600
C1244       C  0.22193643  0.50364102  0.22422541     0.18300
C1245       C  0.20656405  0.48055291  0.23607718    -0.09600
C1246       C  0.19846529  0.48131051  0.26488017    -0.02600
H1247       H  0.24081306  0.54520367  0.23198270     0.04800
C1248       C  0.22844435  0.50463050  0.19345191     0.20300
H1249       H  0.18691046  0.46283691  0.27269310     0.10000
C1250       C  0.25293937  0.49121372  0.18290474    -0.16000
C1251       C  0.25915624  0.49186010  0.15354659     0.03000
C1252       C  0.24064309  0.50608162  0.13464011    -0.11300
C1253       C  0.21629188  0.51950731  0.14534198    -0.01300
C1254       C  0.21013156  0.51896474  0.17453076    -0.06500
H1255       H  0.26719160  0.48033950  0.19752365     0.06000
H1256       H  0.20159829  0.52980280  0.13077647     0.09400
Br1257     Br  0.19540823  0.44791036  0.21328842    -0.06200
Br1258     Br  0.23210062  0.56253598  0.29041494    -0.03100
Br1259     Br  0.29355279  0.47428169  0.14037913    -0.00300
Br1260     Br  0.17621231  0.53757347  0.18761484    -0.04700
C1261       C  0.36735905  0.48424587  0.46010195    -0.12100
C1262       C  0.34258739  0.48457643  0.47738437     0.17800
C1263       C  0.31569779  0.48725997  0.46431682    -0.12600
C1264       C  0.31319243  0.48739721  0.43430284     0.18300
C1265       C  0.33747438  0.48228881  0.41742824    -0.09600
C1266       C  0.36431874  0.48154849  0.43027282    -0.02600
H1267       H  0.29689794  0.49003588  0.47751889     0.04800
C1268       C  0.28619747  0.49553124  0.42030636     0.20300
H1269       H  0.38305122  0.47961098  0.41677543     0.10000
C1270       C  0.28634719  0.52034633  0.40329054    -0.16000
C1271       C  0.26344158  0.52626848  0.38515468     0.03000
C1272       C  0.23946763  0.50762715  0.38459904    -0.11300
C1273       C  0.23818621  0.48430078  0.40357636    -0.01300
C1274       C  0.26153724  0.47789464  0.42113269    -0.06500
H1275       H  0.30510099  0.53432371  0.40297190     0.06000
H1276       H  0.21973884  0.46995496  0.40340024     0.09400
Br1277     Br  0.33501717  0.47650367  0.37668624    -0.06200
Br1278     Br  0.34402342  0.48210875  0.51843434    -0.03100
Br1279     Br  0.26636346  0.55968925  0.36132258    -0.00300
Br1280     Br  0.25990271  0.44339523  0.44342253    -0.04700
C1281       C  0.79546788  0.50448073  0.27860926    -0.12100
C1282       C  0.78732138  0.48000801  0.26208037     0.03400
C1283       C  0.78204210  0.48254994  0.23267775    -0.12600
C1284       C  0.78453490  0.50899714  0.21878250     0.18300
C1285       C  0.79256156  0.53337210  0.23466807    -0.09600
C1286       C  0.79781872  0.53106381  0.26410246    -0.02600
H1287       H  0.77546879  0.46373283  0.22054901     0.04800
C1288       C  0.77766664  0.51075170  0.18789273     0.20300
H1289       H  0.80261198  0.55075277  0.27524565     0.10000
C1290       C  0.75350285  0.52597402  0.17901556    -0.16000
C1291       C  0.74594517  0.52734720  0.15000971     0.03000
C1292       C  0.76244519  0.51296112  0.12954671    -0.11300
C1293       C  0.78644384  0.49751391  0.13841193    -0.01300
C1294       C  0.79427227  0.49651165  0.16732779    -0.06500
H1295       H  0.74034811  0.53658761  0.19476396     0.06000
H1296       H  0.79942963  0.48662447  0.12270024     0.09400
Br1297     Br  0.79659490  0.57043989  0.21708460    -0.06200
Br1298     Br  0.78183618  0.44223115  0.27765258    -0.03100
Br1299     Br  0.71206926  0.54760633  0.13944754    -0.00300
Br1300     Br  0.82833498  0.47637733  0.17760357    -0.04700
C1301       C  0.60085381  0.48293670  0.42487029    -0.12100
C1302       C  0.61896199  0.46013678  0.43220554     0.03400
C1303       C  0.64743618  0.46031758  0.42265327    -0.12600
C1304       C  0.65828716  0.48308126  0.40600717     0.18300
C1305       C  0.63973023  0.50488287  0.39724608    -0.09600
C1306       C  0.61140123  0.50467113  0.40666745    -0.02600
H1307       H  0.66141097  0.44309344  0.42893850     0.04800
C1308       C  0.68850723  0.48319336  0.39652281     0.20300
H1309       H  0.59779872  0.52231270  0.40067731     0.10000
C1310       C  0.69663149  0.46351176  0.37558405    -0.16000
C1311       C  0.72355901  0.46550972  0.36273549     0.03000
C1312       C  0.74300384  0.48769321  0.37075186    -0.11300
C1313       C  0.73569601  0.50595414  0.39338168    -0.01300
C1314       C  0.70866381  0.50386238  0.40628372    -0.06500
H1315       H  0.68153890  0.44710755  0.36846017     0.06000
H1316       H  0.75050323  0.52274308  0.40014382     0.09400
Br1317     Br  0.65211202  0.53565111  0.37264742    -0.06200
Br1318     Br  0.60690046  0.42971559  0.45721277    -0.03100
Br1319     Br  0.73238169  0.43682799  0.33485794    -0.00300
Br1320     Br  0.69992315  0.53018637  0.43650285    -0.04700
C1321       C  0.85972129  0.99688796  0.74087006    -0.12100
C1322       C  0.88405143  0.97955509  0.74546970     0.03400
C1323       C  0.89568437  0.97676292  0.77326902    -0.12600
C1324       C  0.88237009  0.98901382  0.79725510     0.18300
C1325       C  0.85736749  0.00500762  0.79270193    -0.09600
C1326       C  0.84746624  0.01002531  0.76498716    -0.02600
H1327       H  0.91507294  0.96467797  0.77615435     0.04800
C1328       C  0.89589225  0.98822134  0.82639668     0.20300
H1329       H  0.82916728  0.02375627  0.76259951     0.10000
C1330       C  0.89958920  0.01441181  0.84052589    -0.16000
C1331       C  0.90843811  0.01596030  0.86892540     0.03000
C1332       C  0.91754605  0.99096983  0.88360417    -0.11300
C1333       C  0.91491073  0.96447440  0.86921262    -0.01300
C1334       C  0.90379399  0.96288652  0.84097679    -0.06500
H1335       H  0.89430483  0.03414004  0.82958879     0.06000
H1336       H  0.92181789  0.94506139  0.87971501     0.09400
Br1337     Br  0.83428311  0.01920274  0.82360591    -0.06200
Br1338     Br  0.90130160  0.95693017  0.71604121    -0.03100
Br1339     Br  0.90582298  0.05357731  0.88579810    -0.00300
Br1340     Br  0.89940737  0.92575668  0.82372600    -0.04700
C1341       C  0.87723968  0.00170675  0.25441955    -0.12100
C1342       C  0.88197791  0.02439811  0.23503667     0.03400
C1343       C  0.89771947  0.01976882  0.21017123    -0.12600
C1344       C  0.90811107  0.99252166  0.20378748     0.18300
C1345       C  0.90346478  0.96977147  0.22308514    -0.09600
C1346       C  0.88819160  0.97454508  0.24838020    -0.02600
H1347       H  0.90090192  0.03722433  0.19511720     0.04800
C1348       C  0.92182585  0.98835695  0.17578676     0.20300
H1349       H  0.88339632  0.95665733  0.26242391     0.10000
C1350       C  0.95163685  0.99125167  0.17351076    -0.16000
C1351       C  0.96477454  0.99278732  0.14655972     0.03000
C1352       C  0.94779526  0.99119897  0.12147457    -0.11300
C1353       C  0.91807420  0.98705421  0.12402372    -0.01300
C1354       C  0.90504548  0.98575815  0.15083940    -0.06500
H1355       H  0.96452517  0.99384953  0.19272524     0.06000
H1356       H  0.90475727  0.98572612  0.10497397     0.09400
Br1357     Br  0.91568189  0.93165017  0.21467466    -0.06200
Br1358     Br  0.86575332  0.06155099  0.24053195    -0.03100
Br1359     Br  0.00522919  0.00039322  0.14558175    -0.00300
Br1360     Br  0.86407817  0.98219355  0.15231252    -0.04700
C1361       C  0.19771202  0.51597432  0.71679529    -0.12100
C1362       C  0.17676578  0.50633997  0.73679965     0.03400
C1363       C  0.18303947  0.50626518  0.76627950    -0.12600
C1364       C  0.20912832  0.51734773  0.77661052     0.18300
C1365       C  0.22849849  0.52998308  0.75737448    -0.09600
C1366       C  0.22260598  0.52960983  0.72804951    -0.02600
H1367       H  0.16730688  0.49794752  0.78128619     0.04800
C1368       C  0.21586639  0.51619029  0.80753659     0.20300
H1369       H  0.23756971  0.54097625  0.71446058     0.10000
C1370       C  0.23137921  0.49305594  0.81814980    -0.16000
C1371       C  0.23932780  0.49171283  0.84708681     0.03000
C1372       C  0.23189393  0.51417139  0.86604747    -0.11300
C1373       C  0.21658400  0.53751217  0.85500991    -0.01300
C1374       C  0.20848517  0.53855611  0.82611771    -0.06500
H1375       H  0.23746778  0.47598643  0.80373818     0.06000
H1376       H  0.21025810  0.55480319  0.86902867     0.09400
Br1377     Br  0.26314279  0.54859914  0.77032638    -0.06200
Br1378     Br  0.13842988  0.49524355  0.72610527    -0.03100
Br1379     Br  0.26077726  0.45881661  0.85853565    -0.00300
Br1380     Br  0.18737574  0.57088794  0.81279267    -0.04700
C1381       C  0.24113110  0.52572899  0.61869601    -0.12100
C1382       C  0.25381074  0.50578887  0.60024515     0.03400
C1383       C  0.28083477  0.51188932  0.58852833    -0.12600
C1384       C  0.29555579  0.53749368  0.59541089     0.18300
C1385       C  0.28215591  0.55807205  0.61252434    -0.09600
C1386       C  0.25505920  0.55217696  0.62382127    -0.02600
H1387       H  0.29111786  0.49593060  0.57537037     0.04800
C1388       C  0.32576488  0.54102851  0.58675978     0.20300
H1389       H  0.24554660  0.56757637  0.63820582     0.10000
C1390       C  0.33225091  0.54874985  0.55846861    -0.16000
C1391       C  0.36052837  0.54851046  0.54871016     0.03000
C1392       C  0.38275381  0.54057055  0.56749628    -0.11300
C1393       C  0.37640784  0.53409718  0.59613888    -0.01300
C1394       C  0.34811565  0.53439463  0.60589970    -0.06500
H1395       H  0.31514581  0.55367608  0.54361361     0.06000
H1396       H  0.39328014  0.52737731  0.61052116     0.09400
Br1397     Br  0.30098661  0.59347169  0.62277244    -0.06200
Br1398     Br  0.23663398  0.46885583  0.59321828    -0.03100
Br1399     Br  0.36724977  0.55589228  0.50870761    -0.00300
Br1400     Br  0.34070327  0.52353252  0.64492367    -0.04700
C1401       C  0.78660387  0.50674487  0.71323496    -0.12100
C1402       C  0.77024032  0.53013859  0.72343691     0.03400
C1403       C  0.76227203  0.53159330  0.75227129    -0.12600
C1404       C  0.77092865  0.51080576  0.77190700     0.18300
C1405       C  0.78776860  0.48803093  0.76234303    -0.09600
C1406       C  0.79529854  0.48603654  0.73340231    -0.02600
H1407       H  0.74942440  0.54930167  0.75953953     0.04800
C1408       C  0.76272932  0.51348036  0.80241714     0.20300
H1409       H  0.80839867  0.46827261  0.72740467     0.10000
C1410       C  0.74461983  0.49264697  0.81474065    -0.16000
C1411       C  0.73816643  0.49330480  0.84403918     0.03000
C1412       C  0.74993548  0.51531062  0.86157212    -0.11300
C1413       C  0.76681125  0.53696187  0.84874946    -0.01300
C1414       C  0.77330186  0.53616524  0.81952540    -0.06500
H1415       H  0.73581769  0.47552477  0.80153184     0.06000
H1416       H  0.77608054  0.55401056  0.86173658     0.09400
Br1417     Br  0.80222166  0.45974906  0.78832307    -0.06200
Br1418     Br  0.75780537  0.56129811  0.69957444    -0.03100
Br1419     Br  0.71253691  0.46402388  0.85833029    -0.00300
Br1420     Br  0.79829832  0.56553493  0.80451153    -0.04700
C1421       C  0.74927594  0.50990842  0.61304315    -0.12100
C1422       C  0.72649538  0.48995240  0.61039194     0.03400
C1423       C  0.70308610  0.49636502  0.59305990    -0.12600
C1424       C  0.70165146  0.52276433  0.57885468     0.18300
C1425       C  0.72439592  0.54270333  0.58139610    -0.09600
C1426       C  0.74829496  0.53595115  0.59807615    -0.02600
H1427       H  0.68546315  0.48106519  0.59133857     0.04800
C1428       C  0.67518010  0.52935818  0.56322785     0.20300
H1429       H  0.76550072  0.55162338  0.60053367     0.10000
C1430       C  0.65343503  0.54361112  0.57783519    -0.16000
C1431       C  0.62590525  0.54481267  0.56623233     0.03000
C1432       C  0.62004019  0.53190131  0.53953098    -0.11300
C1433       C  0.64227212  0.51939865  0.52397662    -0.01300
C1434       C  0.66974754  0.51780648  0.53583333    -0.06500
H1435       H  0.65750427  0.55241189  0.59899884     0.06000
H1436       H  0.63782744  0.50920771  0.50351035     0.09400
Br1437     Br  0.72301641  0.57970310  0.56363713    -0.06200
Br1438     Br  0.72597640  0.45400699  0.63044315    -0.03100
Br1439     Br  0.59656950  0.56315450  0.58804602    -0.00300
Br1440     Br  0.69870785  0.49779462  0.51513342    -0.04700
C1441       C  0.99208612  0.27738314  0.36701275    -0.12100
C1442       C  0.00715298  0.26260616  0.34565681     0.03400
C1443       C  0.00588518  0.27197338  0.31714950    -0.12600
C1444       C  0.98946559  0.29575123  0.30950926     0.18300
C1445       C  0.97395870  0.31016855  0.33075220    -0.09600
C1446       C  0.97566102  0.30114030  0.35928895    -0.02600
H1447       H  0.01748380  0.26048659  0.30078670     0.04800
C1448       C  0.98861624  0.30481532  0.27916521     0.20300
H1449       H  0.96446315  0.31299789  0.37562837     0.10000
C1450       C  0.96531960  0.29657824  0.26206133    -0.16000
C1451       C  0.96500087  0.30245094  0.23263022     0.03000
C1452       C  0.98868011  0.31680134  0.21941522    -0.11300
C1453       C  0.01144620  0.32608859  0.23736823    -0.01300
C1454       C  0.01146796  0.32022522  0.26681735    -0.06500
H1455       H  0.94751235  0.28489060  0.27159416     0.06000
H1456       H  0.02982885  0.33746922  0.22909076     0.09400
Br1457     Br  0.95044742  0.34233351  0.32182512    -0.06200
Br1458     Br  0.02816640  0.22859963  0.35410111    -0.03100
Br1459     Br  0.93162304  0.28906194  0.21200143    -0.00300
Br1460     Br  0.04329855  0.33356238  0.28955977    -0.04700
C1461       C  0.99272846  0.32161140  0.77817746    -0.12100
C1462       C  0.01882961  0.31489022  0.76415852     0.03400
C1463       C  0.01910306  0.30880527  0.73479326    -0.12600
C1464       C  0.99388375  0.30844313  0.71863104     0.18300
C1465       C  0.96801143  0.31546966  0.73193658    -0.09600
C1466       C  0.96753422  0.32187757  0.76125689    -0.02600
H1467       H  0.03906405  0.30302785  0.72468000     0.04800
C1468       C  0.99479287  0.29785779  0.68874636     0.20300
H1469       H  0.94683739  0.32549730  0.77058305     0.10000
C1470       C  0.98245026  0.27095685  0.68229203    -0.16000
C1471       C  0.98377866  0.25966869  0.65450761     0.03000
C1472       C  0.99822733  0.27512959  0.63288088    -0.11300
C1473       C  0.01112525  0.30169880  0.63951940    -0.01300
C1474       C  0.00918033  0.31330122  0.66707021    -0.06500
H1475       H  0.97177593  0.25869978  0.69898074     0.06000
H1476       H  0.02179010  0.31401837  0.62286679     0.09400
Br1477     Br  0.93258066  0.31594894  0.71098687    -0.06200
Br1478     Br  0.05508237  0.31150871  0.78335409    -0.03100
Br1479     Br  0.96649784  0.22276411  0.64737707    -0.00300
Br1480     Br  0.02489291  0.35099532  0.67357289    -0.04700
C1481       C  0.92486985  0.35244957  0.43555383    -0.12100
C1482       C  0.90790593  0.34597065  0.41093703     0.03400
C1483       C  0.89198067  0.36746352  0.39789241    -0.12600
C1484       C  0.89171590  0.39520869  0.40913629     0.18300
C1485       C  0.90762383  0.40163700  0.43397319    -0.09600
C1486       C  0.92440148  0.38052935  0.44667249    -0.02600
H1487       H  0.87928581  0.36240648  0.37900766     0.04800
C1488       C  0.87369494  0.41673773  0.39509594     0.20300
H1489       H  0.93649555  0.38598880  0.46582139     0.10000
C1490       C  0.84542113  0.41972637  0.40422067    -0.16000
C1491       C  0.82699536  0.43853957  0.39030900     0.03000
C1492       C  0.83699666  0.45519030  0.36692953    -0.11300
C1493       C  0.86548268  0.45195473  0.35781042    -0.01300
C1494       C  0.88372642  0.43280407  0.37159935    -0.06500
H1495       H  0.83745060  0.40676890  0.42185603     0.06000
H1496       H  0.87365065  0.46438454  0.33992266     0.09400
Br1497     Br  0.90620056  0.43866470  0.45172439    -0.06200
Br1498     Br  0.90454342  0.30864629  0.39351765    -0.03100
Br1499     Br  0.78794442  0.43801453  0.40284855    -0.00300
Br1500     Br  0.92204169  0.42881145  0.35756753    -0.04700
C1501       C  0.92602399  0.35318464  0.56514625    -0.12100
C1502       C  0.93043162  0.38312736  0.56054494     0.03400
C1503       C  0.91200448  0.40283702  0.57315990    -0.12600
C1504       C  0.88927021  0.39368326  0.59049169     0.18300
C1505       C  0.88508425  0.36431055  0.59567923    -0.09600
C1506       C  0.90328334  0.34441905  0.58314004    -0.02600
H1507       H  0.91543219  0.42556643  0.56945975     0.04800
C1508       C  0.87040803  0.41515029  0.60347248     0.20300
H1509       H  0.89932565  0.32190561  0.58744698     0.10000
C1510       C  0.84413112  0.42120446  0.59040699    -0.16000
C1511       C  0.82560034  0.44115563  0.60251074     0.03000
C1512       C  0.83342192  0.45546156  0.62811286    -0.11300
C1513       C  0.85983134  0.44924623  0.64106391    -0.01300
C1514       C  0.87822491  0.42928008  0.62898516    -0.06500
H1515       H  0.83792387  0.41013511  0.57086683     0.06000
H1516       H  0.86633776  0.46020223  0.66057061     0.09400
Br1517     Br  0.85491533  0.35053127  0.62013155    -0.06200
Br1518     Br  0.96082702  0.39965856  0.53781124    -0.03100
Br1519     Br  0.78948367  0.44663253  0.58391022    -0.00300
Br1520     Br  0.91356985  0.42145699  0.64828442    -0.04700
C1521       C  0.06806721  0.35453816  0.56433853    -0.12100
C1522       C  0.05615269  0.37535334  0.58248431     0.03400
C1523       C  0.07370961  0.39687162  0.59467491    -0.12600
C1524       C  0.10319137  0.39842911  0.58868649     0.18300
C1525       C  0.11501913  0.37762157  0.57040972    -0.09600
C1526       C  0.09759182  0.35576132  0.55879784    -0.02600
H1527       H  0.06435359  0.41233435  0.60907468     0.04800
C1528       C  0.12154092  0.42104414  0.60246442     0.20300
H1529       H  0.10699587  0.34012810  0.54460140     0.10000
C1530       C  0.14390672  0.41284763  0.62077085    -0.16000
C1531       C  0.16225947  0.43325439  0.63351786     0.03000
C1532       C  0.15795041  0.46277459  0.62877819    -0.11300
C1533       C  0.13558926  0.47097910  0.61042232    -0.01300
C1534       C  0.11753462  0.45051144  0.59729667    -0.06500
H1535       H  0.14740328  0.39030430  0.62481351     0.06000
H1536       H  0.13182633  0.49350146  0.60653583     0.09400
Br1537     Br  0.15459801  0.37900988  0.55940727    -0.06200
Br1538     Br  0.01634663  0.37427982  0.59243459    -0.03100
Br1539     Br  0.19404253  0.41926052  0.65527998    -0.00300
Br1540     Br  0.08838089  0.46397827  0.57179193    -0.04700
C1541       C  0.06636939  0.35578163  0.43639718    -0.12100
C1542       C  0.07756583  0.37916683  0.45239691     0.03400
C1543       C  0.09430430  0.40023778  0.43891628    -0.12600
C1544       C  0.09986480  0.39881020  0.40948458     0.18300
C1545       C  0.08833339  0.37589056  0.39329938    -0.09600
C1546       C  0.07202719  0.35440888  0.40684195    -0.02600
H1547       H  0.10335757  0.41768450  0.45152965     0.04800
C1548       C  0.11887433  0.42067181  0.39633337     0.20300
H1549       H  0.06331162  0.33685226  0.39415775     0.10000
C1550       C  0.14618655  0.41264929  0.38716166    -0.16000
C1551       C  0.16463835  0.43256839  0.37415112     0.03000
C1552       C  0.15575056  0.46097953  0.37027091    -0.11300
C1553       C  0.12890516  0.46928170  0.38030832    -0.01300
C1554       C  0.11040892  0.44935668  0.39323625    -0.06500
H1555       H  0.15310150  0.39078370  0.39009544     0.06000
H1556       H  0.12204326  0.49118039  0.37742056     0.09400
Br1557     Br  0.09343574  0.37381348  0.35251961    -0.06200
Br1558     Br  0.07232166  0.38294073  0.49296302    -0.03100
Br1559     Br  0.20199299  0.42028355  0.36294823    -0.00300
Br1560     Br  0.07346579  0.46207990  0.40514403    -0.04700
C1561       C  0.06294623  0.16313399  0.56498395    -0.12100
C1562       C  0.08551142  0.16848238  0.58482968     0.03400
C1563       C  0.09727773  0.14565036  0.59992754    -0.12600
C1564       C  0.08725732  0.11760527  0.59553760     0.18300
C1565       C  0.06549642  0.11199872  0.57555942    -0.09600
C1566       C  0.05359626  0.13457359  0.56044086    -0.02600
H1567       H  0.11420160  0.14977214  0.61540641     0.04800
C1568       C  0.09885125  0.09448457  0.61297438     0.20300
H1569       H  0.03646621  0.12957410  0.54547313     0.10000
C1570       C  0.08432862  0.08642240  0.63787920    -0.16000
C1571       C  0.09499799  0.06512105  0.65570268     0.03000
C1572       C  0.12069542  0.05125200  0.64834167    -0.11300
C1573       C  0.13466445  0.05902261  0.62268708    -0.01300
C1574       C  0.12408289  0.08070038  0.60521015    -0.06500
H1575       H  0.06486611  0.09728956  0.64377813     0.06000
H1576       H  0.15422283  0.04854863  0.61645971     0.09400
Br1577     Br  0.05110343  0.07382960  0.56868931    -0.06200
Br1578     Br  0.10195046  0.20573785  0.59270617    -0.03100
Br1579     Br  0.07412058  0.05861475  0.69039583    -0.00300
Br1580     Br  0.14485972  0.09142026  0.57131466    -0.04700
C1581       C  0.93174055  0.15985582  0.57017204    -0.12100
C1582       C  0.90574615  0.16346281  0.58542654     0.03400
C1583       C  0.89377571  0.14057669  0.60122205    -0.12600
C1584       C  0.90703340  0.11384564  0.60250454     0.18300
C1585       C  0.93277291  0.11008968  0.58748718    -0.09600
C1586       C  0.94476320  0.13277739  0.57148801    -0.02600
H1587       H  0.87379325  0.14360393  0.61248892     0.04800
C1588       C  0.89310891  0.08998739  0.61887439     0.20300
H1589       H  0.96472087  0.12923486  0.56035930     0.10000
C1590       C  0.87397553  0.07128306  0.60470708    -0.16000
C1591       C  0.85907928  0.04971086  0.61975289     0.03000
C1592       C  0.86285951  0.04673681  0.64968896    -0.11300
C1593       C  0.88290534  0.06464207  0.66365580    -0.01300
C1594       C  0.89794314  0.08614692  0.64850380    -0.06500
H1595       H  0.87047330  0.07360986  0.58184651     0.06000
H1596       H  0.88634338  0.06236909  0.68653053     0.09400
Br1597     Br  0.95255114  0.07440611  0.58872748    -0.06200
Br1598     Br  0.88442048  0.19835330  0.58491710    -0.03100
Br1599     Br  0.83458629  0.02414961  0.59822660    -0.00300
Br1600     Br  0.92473225  0.10999843  0.66905742    -0.04700
C1601       C  0.86714352  0.05292805  0.34200164    -0.12100
C1602       C  0.89387384  0.06587311  0.33534146     0.03400
C1603       C  0.90662782  0.08534860  0.35452429    -0.12600
C1604       C  0.89347409  0.09203929  0.38058600     0.18300
C1605       C  0.86748019  0.07832330  0.38787445    -0.09600
C1606       C  0.85452087  0.05906032  0.36863415    -0.02600
H1607       H  0.92660894  0.09594193  0.34875589     0.04800
C1608       C  0.90602242  0.11513372  0.39858678     0.20300
H1609       H  0.83445669  0.04873957  0.37456180     0.10000
C1610       C  0.89325004  0.14209910  0.39836145    -0.16000
C1611       C  0.90538376  0.16531047  0.41335761     0.03000
C1612       C  0.93055111  0.16145623  0.42987451    -0.11300
C1613       C  0.94316880  0.13416172  0.42995511    -0.01300
C1614       C  0.93140446  0.11132686  0.41423450    -0.06500
H1615       H  0.87399667  0.14525957  0.38581116     0.06000
H1616       H  0.96275645  0.13056351  0.44181397     0.09400
Br1617     Br  0.84915171  0.08499913  0.42398422    -0.06200
Br1618     Br  0.91345704  0.05965155  0.29992791    -0.03100
Br1619     Br  0.88628231  0.20127803  0.40957315    -0.00300
Br1620     Br  0.95099309  0.07548882  0.41449954    -0.04700
C1621       C  0.11976062  0.05559771  0.33863338    -0.12100
C1622       C  0.09367481  0.05081449  0.35373733     0.03400
C1623       C  0.08083757  0.07328458  0.36870087    -0.12600
C1624       C  0.09243693  0.10112415  0.36844658     0.18300
C1625       C  0.11742639  0.10643881  0.35233065    -0.09600
C1626       C  0.13073455  0.08395575  0.33779344    -0.02600
H1627       H  0.06168796  0.06886652  0.38111513     0.04800
C1628       C  0.07913792  0.12366103  0.38658559     0.20300
H1629       H  0.14981006  0.08889340  0.32549299     0.10000
C1630       C  0.09554087  0.13672383  0.40843195    -0.16000
C1631       C  0.08375323  0.15729533  0.42661112     0.03000
C1632       C  0.05479908  0.16455452  0.42386291    -0.11300
C1633       C  0.03812356  0.15136298  0.40233689    -0.01300
C1634       C  0.05010936  0.13131357  0.38354066    -0.06500
H1635       H  0.11767700  0.13081305  0.41143515     0.06000
H1636       H  0.01588409  0.15713192  0.39976427     0.09400
Br1637     Br  0.13392252  0.14420774  0.34884135    -0.06200
Br1638     Br  0.07353919  0.01494533  0.35644808    -0.03100
Br1639     Br  0.10783263  0.17471964  0.45527316    -0.00300
Br1640     Br  0.02638194  0.11621804  0.35321117    -0.04700
C1641       C  0.99732292  0.71600865  0.20918802    -0.12100
C1642       C  0.00137466  0.69320331  0.22900154     0.03400
C1643       C  0.00019672  0.69836367  0.25856660    -0.12600
C1644       C  0.99443213  0.72572404  0.26912076     0.18300
C1645       C  0.98936433  0.74812542  0.24989926    -0.09600
C1646       C  0.99068197  0.74323169  0.22048794    -0.02600
H1647       H  0.00376860  0.68093030  0.27344425     0.04800
C1648       C  0.99389496  0.73096588  0.30023457     0.20300
H1649       H  0.98569130  0.76121371  0.20714069     0.10000
C1650       C  0.01557174  0.74807342  0.31249081    -0.16000
C1651       C  0.01474888  0.75553595  0.34146177     0.03000
C1652       C  0.99211789  0.74510736  0.35891906    -0.11300
C1653       C  0.97039641  0.72805737  0.34640642    -0.01300
C1654       C  0.97108302  0.72103404  0.31730971    -0.06500
H1655       H  0.03285709  0.75626173  0.29920152     0.06000
H1656       H  0.95299256  0.71977007  0.35937734     0.09400
Br1657     Br  0.97954284  0.78581547  0.26287743    -0.06200
Br1658     Br  0.00818527  0.65424961  0.21766989    -0.03100
Br1659     Br  0.04420001  0.78151870  0.35496707    -0.00300
Br1660     Br  0.93996137  0.69869093  0.30164726    -0.04700
C1661       C  0.00018646  0.71420777  0.77731546    -0.12100
C1662       C  0.02245849  0.73096237  0.76448539     0.03400
C1663       C  0.02139116  0.73787811  0.73524464    -0.12600
C1664       C  0.99830908  0.72897763  0.71806779     0.18300
C1665       C  0.97605537  0.71269152  0.73046329    -0.09600
C1666       C  0.97726837  0.70516000  0.75942418    -0.02600
H1667       H  0.03872983  0.75033250  0.72581210     0.04800
C1668       C  0.99840706  0.73523839  0.68690784     0.20300
H1669       H  0.95953005  0.69257353  0.76726743     0.10000
C1670       C  0.99969169  0.71219682  0.66763616    -0.16000
C1671       C  0.99838731  0.71673512  0.63806981     0.03000
C1672       C  0.99649628  0.74479116  0.62726635    -0.11300
C1673       C  0.99560854  0.76797968  0.64635723    -0.01300
C1674       C  0.99644489  0.76339481  0.67608337    -0.06500
H1675       H  0.00119465  0.69048799  0.67570035     0.06000
H1676       H  0.99398694  0.78961653  0.63812939     0.09400
Br1677     Br  0.94260531  0.70128951  0.70896564    -0.06200
Br1678     Br  0.05469661  0.74633094  0.78547562    -0.03100
Br1679     Br  0.99829113  0.68385981  0.61329780    -0.00300
Br1680     Br  0.99351598  0.79600969  0.70090709    -0.04700
C1681       C  0.06232086  0.65996690  0.42662109    -0.12100
C1682       C  0.07214558  0.66383251  0.39813258     0.03400
C1683       C  0.08909500  0.64292758  0.38521157    -0.12600
C1684       C  0.09630018  0.61784001  0.39996348     0.18300
C1685       C  0.08584876  0.61355392  0.42796927    -0.09600
C1686       C  0.06911201  0.63446370  0.44102710    -0.02600
H1687       H  0.09683193  0.64632181  0.36356528     0.04800
C1688       C  0.11580360  0.59695550  0.38650703     0.20300
H1689       H  0.06170310  0.63088995  0.46276061     0.10000
C1690       C  0.14294975  0.59300563  0.39864102    -0.16000
C1691       C  0.16167518  0.57272168  0.38756536     0.03000
C1692       C  0.15370032  0.55642271  0.36321154    -0.11300
C1693       C  0.12670107  0.56079552  0.35070915    -0.01300
C1694       C  0.10768602  0.58060447  0.36232092    -0.06500
H1695       H  0.14945351  0.60557822  0.41716178     0.06000
H1696       H  0.11999348  0.54806604  0.33237230     0.09400
Br1697     Br  0.09333880  0.57907325  0.44896756    -0.06200
Br1698     Br  0.06198506  0.69626640  0.37505563    -0.03100
Br1699     Br  0.19794569  0.56909205  0.40646374    -0.00300
Br1700     Br  0.07023948  0.58313906  0.34565308    -0.04700
C1701       C  0.06600268  0.66114454  0.55720861    -0.12100
C1702       C  0.08090349  0.66692639  0.58321014     0.03400
C1703       C  0.09763027  0.64571762  0.59573837    -0.12600
C1704       C  0.10026865  0.61880550  0.58290470     0.18300
C1705       C  0.08570796  0.61289020  0.55710266    -0.09600
C1706       C  0.06866475  0.63388830  0.54456591    -0.02600
H1707       H  0.10870960  0.65022993  0.61573304     0.04800
C1708       C  0.11780992  0.59711199  0.59740744     0.20300
H1709       H  0.05778552  0.62893471  0.52457546     0.10000
C1710       C  0.10612179  0.58199307  0.62065720    -0.16000
C1711       C  0.12255453  0.56249815  0.63610706     0.03000
C1712       C  0.15126631  0.55786967  0.62825129    -0.11300
C1713       C  0.16281745  0.57279849  0.60470052    -0.01300
C1714       C  0.14641714  0.59257702  0.58950456    -0.06500
H1715       H  0.08411907  0.58549798  0.62687122     0.06000
H1716       H  0.18486564  0.56952159  0.59850849     0.09400
Br1717     Br  0.08848570  0.57647517  0.53829957    -0.06200
Br1718     Br  0.07904035  0.70259387  0.60378329    -0.03100
Br1719     Br  0.10416905  0.54199719  0.66680334    -0.00300
Br1720     Br  0.16411380  0.61381767  0.55890949    -0.04700
C1721       C  0.92323626  0.65876339  0.55876836    -0.12100
C1722       C  0.89313612  0.66025293  0.56013230     0.03400
C1723       C  0.87761585  0.64006915  0.57615208    -0.12600
C1724       C  0.89151953  0.61782484  0.59045354     0.18300
C1725       C  0.92152519  0.61576497  0.58836795    -0.09600
C1726       C  0.93713173  0.63623321  0.57269695    -0.02600
H1727       H  0.85446854  0.64114225  0.57667082     0.04800
C1728       C  0.87393727  0.59538961  0.60468223     0.20300
H1729       H  0.96023015  0.63474923  0.57168078     0.10000
C1730       C  0.87293572  0.56800397  0.59263239    -0.16000
C1731       C  0.85599634  0.54610688  0.60444827     0.03000
C1732       C  0.83806588  0.55180898  0.62833100    -0.11300
C1733       C  0.83908284  0.57971643  0.64013260    -0.01300
C1734       C  0.85720632  0.60112938  0.62894991    -0.06500
H1735       H  0.88597044  0.56348764  0.57401294     0.06000
H1736       H  0.82580538  0.58510075  0.65827518     0.09400
Br1737     Br  0.94215782  0.58563754  0.60677648    -0.06200
Br1738     Br  0.87191279  0.68756002  0.53826866    -0.03100
Br1739     Br  0.86177426  0.50915302  0.58763121    -0.00300
Br1740     Br  0.85952739  0.63741482  0.64831368    -0.04700
C1741       C  0.91586938  0.65638718  0.43720860    -0.12100
C1742       C  0.89914071  0.65976753  0.41204198     0.03400
C1743       C  0.88020535  0.63790751  0.40319669    -0.12600
C1744       C  0.87734840  0.61232945  0.41869147     0.18300
C1745       C  0.89370786  0.60872776  0.44375596    -0.09600
C1746       C  0.91267876  0.63059216  0.45282760    -0.02600
H1747       H  0.86821687  0.64049778  0.38345212     0.04800
C1748       C  0.86043818  0.58846453  0.40572147     0.20300
H1749       H  0.92491190  0.62737428  0.47230396     0.10000
C1750       C  0.87344417  0.57233910  0.38422695    -0.16000
C1751       C  0.85785029  0.55196253  0.36848354     0.03000
C1752       C  0.82847181  0.54718372  0.37422409    -0.11300
C1753       C  0.81562918  0.56246688  0.39659626    -0.01300
C1754       C  0.83133195  0.58325533  0.41215401    -0.06500
H1755       H  0.89579846  0.57620579  0.37914359     0.06000
H1756       H  0.79315494  0.55895239  0.40129288     0.09400
Br1757     Br  0.89121819  0.57402853  0.46575566    -0.06200
Br1758     Br  0.90220988  0.69245756  0.38720845    -0.03100
Br1759     Br  0.87813201  0.53146245  0.33938223    -0.00300
Br1760     Br  0.81203019  0.60483218  0.44102165    -0.04700
C1761       C  0.05413031  0.85007654  0.41878275    -0.12100
C1762       C  0.08102619  0.86215833  0.42571473     0.03400
C1763       C  0.09392135  0.88225981  0.40733425    -0.12600
C1764       C  0.08009429  0.89139537  0.38219025     0.18300
C1765       C  0.05304589  0.87927449  0.37524091    -0.09600
C1766       C  0.04039698  0.85866811  0.39342890    -0.02600
H1767       H  0.11471535  0.89124040  0.41297015     0.04800
C1768       C  0.09399262  0.91429390  0.36444811     0.20300
H1769       H  0.01964932  0.84949771  0.38790176     0.10000
C1770       C  0.10288092  0.90852371  0.33620284    -0.16000
C1771       C  0.11729324  0.92958635  0.31982888     0.03000
C1772       C  0.12255632  0.95705110  0.33152493    -0.11300
C1773       C  0.11548546  0.96197278  0.36021404    -0.01300
C1774       C  0.10053188  0.94142958  0.37633162    -0.06500
H1775       H  0.09913789  0.88742359  0.32711067     0.06000
H1776       H  0.12151930  0.98216300  0.37016345     0.09400
Br1777     Br  0.03194120  0.89104944  0.34201367    -0.06200
Br1778     Br  0.10057671  0.85236652  0.46047257    -0.03100
Br1779     Br  0.13118268  0.91933223  0.28260132    -0.00300
Br1780     Br  0.08851169  0.95217194  0.41412636    -0.04700
C1781       C  0.92887348  0.84796385  0.42136720    -0.12100
C1782       C  0.91765648  0.84232442  0.39355826     0.03400
C1783       C  0.90425800  0.86415007  0.37818710    -0.12600
C1784       C  0.90226226  0.89189046  0.38945096     0.18300
C1785       C  0.91373562  0.89771802  0.41681673    -0.09600
C1786       C  0.92669299  0.87590402  0.43249270    -0.02600
H1787       H  0.89559078  0.85954227  0.35706699     0.04800
C1788       C  0.88804040  0.91439493  0.37238699     0.20300
H1789       H  0.93519459  0.88098141  0.45356014     0.10000
C1790       C  0.86274451  0.92646500  0.38266576    -0.16000
C1791       C  0.84898099  0.94817904  0.36745770     0.03000
C1792       C  0.86022439  0.95776741  0.34093728    -0.11300
C1793       C  0.88557487  0.94556096  0.33077245    -0.01300
C1794       C  0.89943972  0.92409411  0.34613892    -0.06500
H1795       H  0.85394729  0.91928631  0.40296436     0.06000
H1796       H  0.89488016  0.95283318  0.31080776     0.09400
Br1797     Br  0.91341006  0.93542777  0.43327254    -0.06200
Br1798     Br  0.92110118  0.80620330  0.37406047    -0.03100
Br1799     Br  0.81669142  0.96543167  0.38562381    -0.00300
Br1800     Br  0.93454602  0.90965306  0.33092603    -0.04700
C1801       C  0.93126079  0.84776009  0.56723382    -0.12100
C1802       C  0.91246515  0.86796196  0.55559415     0.03400
C1803       C  0.89996493  0.88836460  0.57344309    -0.12600
C1804       C  0.90628660  0.88939061  0.60289877     0.18300
C1805       C  0.92516740  0.86919748  0.61458407    -0.09600
C1806       C  0.93692831  0.84816969  0.59686857    -0.02600
H1807       H  0.88507466  0.90344971  0.56433011     0.04800
C1808       C  0.89193239  0.91101036  0.62097512     0.20300
H1809       H  0.95140029  0.83271555  0.60606127     0.10000
C1810       C  0.87093644  0.90201454  0.64059427    -0.16000
C1811       C  0.85498885  0.92197060  0.65602179     0.03000
C1812       C  0.85974574  0.95164034  0.65174757    -0.11300
C1813       C  0.88151473  0.96054164  0.63284352    -0.01300
C1814       C  0.89748701  0.94055508  0.61749934    -0.06500
H1815       H  0.86670293  0.87932086  0.64365896     0.06000
H1816       H  0.88583660  0.98319306  0.62961625     0.09400
Br1817     Br  0.93681471  0.87060049  0.65408806    -0.06200
Br1818     Br  0.90183018  0.86729308  0.51581881    -0.03100
Br1819     Br  0.82835655  0.90726065  0.68370806    -0.00300
Br1820     Br  0.92697349  0.95450343  0.59230814    -0.04700
C1821       C  0.05935198  0.85018204  0.56434488    -0.12100
C1822       C  0.04385720  0.87040638  0.58019814     0.03400
C1823       C  0.05819159  0.89050524  0.59744417    -0.12600
C1824       C  0.08811371  0.89115176  0.59932775     0.18300
C1825       C  0.10380881  0.87065706  0.58395245    -0.09600
C1826       C  0.08938100  0.85030908  0.56672953    -0.02600
H1827       H  0.04586160  0.90571705  0.60966626     0.04800
C1828       C  0.10199753  0.91340856  0.61768981     0.20300
H1829       H  0.10165194  0.83471857  0.55494496     0.10000
C1830       C  0.11535005  0.90548676  0.64346665    -0.16000
C1831       C  0.12623651  0.92634208  0.66245913     0.03000
C1832       C  0.12390849  0.95569868  0.65570874    -0.11300
C1833       C  0.11041484  0.96353774  0.63003826    -0.01300
C1834       C  0.09956938  0.94276365  0.61110792    -0.06500
H1835       H  0.11663216  0.88303206  0.64916420     0.06000
H1836       H  0.10870105  0.98598362  0.62442326     0.09400
Br1837     Br  0.14482217  0.87015079  0.58518969    -0.06200
Br1838     Br  0.00303115  0.87046721  0.58087477    -0.03100
Br1839     Br  0.14209236  0.91370780  0.69817632    -0.00300
Br1840     Br  0.08205739  0.95558778  0.57621125    -0.04700
C1841       C  0.27493821  0.80618498  0.49039935    -0.12100
C1842       C  0.26243578  0.78995310  0.46756544     0.03400
C1843       C  0.23318893  0.78339928  0.46766870    -0.12600
C1844       C  0.21531220  0.79423620  0.48888609     0.18300
C1845       C  0.22683950  0.81266297  0.50989252    -0.09600
C1846       C  0.25632806  0.81824007  0.51076595    -0.02600
H1847       H  0.22422788  0.76988446  0.45088087     0.04800
C1848       C  0.18478885  0.78565778  0.48890482     0.20300
H1849       H  0.26408513  0.83277789  0.52707897     0.10000
C1850       C  0.17442795  0.76795581  0.51099392    -0.16000
C1851       C  0.14579739  0.75877941  0.51146563     0.03000
C1852       C  0.12697117  0.76752623  0.48951615    -0.11300
C1853       C  0.13773285  0.78453190  0.46695168    -0.01300
C1854       C  0.16629469  0.79373618  0.46659084    -0.06500
H1855       H  0.18880417  0.76103669  0.52781351     0.06000
H1856       H  0.12366804  0.79150108  0.44990112     0.09400
Br1857     Br  0.20283490  0.83198573  0.53678228    -0.06200
Br1858     Br  0.28327906  0.77633856  0.43483374    -0.03100
Br1859     Br  0.13428294  0.73303859  0.54163891    -0.00300
Br1860     Br  0.17867151  0.81842315  0.43593723    -0.04700
C1861       C  0.41996232  0.61935173  0.47636848    -0.12100
C1862       C  0.40615510  0.63389680  0.49907173     0.03400
C1863       C  0.39770192  0.66214791  0.49554758    -0.12600
C1864       C  0.40359064  0.67725659  0.47029841     0.18300
C1865       C  0.41716287  0.66300751  0.44747104    -0.09600
C1866       C  0.42461767  0.63406733  0.45041764    -0.02600
H1867       H  0.38722427  0.67284494  0.51319983     0.04800
C1868       C  0.39556669  0.70791377  0.46945595     0.20300
H1869       H  0.43612377  0.62377712  0.43320163     0.10000
C1870       C  0.40632554  0.72640135  0.49095597    -0.16000
C1871       C  0.39393004  0.75306911  0.49613173     0.03000
C1872       C  0.37104870  0.76216301  0.47888301    -0.11300
C1873       C  0.36195999  0.74465399  0.45588634    -0.01300
C1874       C  0.37331504  0.71745332  0.45163184    -0.06500
H1875       H  0.42294250  0.71901947  0.50530545     0.06000
H1876       H  0.34423414  0.75122057  0.44253195     0.09400
Br1877     Br  0.42870550  0.68279241  0.41324153    -0.06200
Br1878     Br  0.39957462  0.61783216  0.53649965    -0.03100
Br1879     Br  0.40615637  0.77382284  0.52955783    -0.00300
Br1880     Br  0.35428531  0.69263618  0.42453536    -0.04700
C1881       C  0.27582999  0.21148673  0.49568638    -0.12100
C1882       C  0.26461563  0.23057441  0.51645271     0.03400
C1883       C  0.23565111  0.23744181  0.51602069    -0.12600
C1884       C  0.21728159  0.22595665  0.49519492     0.18300
C1885       C  0.22800283  0.20758657  0.47418220    -0.09600
C1886       C  0.25688472  0.20047908  0.47450573    -0.02600
H1887       H  0.22731648  0.25177441  0.53216320     0.04800
C1888       C  0.18680309  0.23300448  0.49616217     0.20300
H1889       H  0.26379780  0.18656689  0.45762257     0.10000
C1890       C  0.17770841  0.25913153  0.48472899    -0.16000
C1891       C  0.14882614  0.26645939  0.48568947     0.03000
C1892       C  0.12885648  0.24742933  0.49823552    -0.11300
C1893       C  0.13813988  0.22166654  0.51033360    -0.01300
C1894       C  0.16692139  0.21428900  0.50925954    -0.06500
H1895       H  0.19312650  0.27383903  0.47517931     0.06000
H1896       H  0.12283986  0.20700479  0.52016864     0.09400
Br1897     Br  0.20393957  0.19192690  0.44439348    -0.06200
Br1898     Br  0.28731117  0.24853866  0.54612678    -0.03100
Br1899     Br  0.13780863  0.30321763  0.47131646    -0.00300
Br1900     Br  0.17822834  0.17862442  0.52604120    -0.04700
C1901       C  0.37678959  0.24847246  0.48644284    -0.12100
C1902       C  0.37795172  0.26308517  0.45999325     0.03400
C1903       C  0.39496067  0.28787065  0.45734866    -0.12600
C1904       C  0.41095272  0.29819354  0.48076599     0.18300
C1905       C  0.41106163  0.28260261  0.50661324    -0.09600
C1906       C  0.39430080  0.25768502  0.50913752    -0.02600
H1907       H  0.39475863  0.29980979  0.43741597     0.04800
C1908       C  0.42333857  0.32738577  0.47966923     0.20300
H1909       H  0.39361647  0.24648643  0.52943043     0.10000
C1910       C  0.40472488  0.35037043  0.48262791    -0.16000
C1911       C  0.41522992  0.37836320  0.48549259     0.03000
C1912       C  0.44511073  0.38378554  0.48507422    -0.11300
C1913       C  0.46368260  0.36074711  0.48067125    -0.01300
C1914       C  0.45300986  0.33263906  0.47824004    -0.06500
H1915       H  0.38182847  0.34636275  0.48360222     0.06000
H1916       H  0.48662596  0.36446601  0.48011427     0.09400
Br1917     Br  0.43129545  0.29623422  0.53994076    -0.06200
Br1918     Br  0.35630337  0.25034256  0.42718545    -0.03100
Br1919     Br  0.38727645  0.40787496  0.48936028    -0.00300
Br1920     Br  0.47956157  0.30201604  0.47394010    -0.04700
C1921       C  0.69833895  0.23115499  0.99255874    -0.12100
C1922       C  0.67568752  0.25095653  0.99549906     0.03400
C1923       C  0.68150794  0.28049017  0.99681497    -0.12600
C1924       C  0.70951057  0.29125381  0.99446308     0.18300
C1925       C  0.73197070  0.27218990  0.99046366    -0.09600
C1926       C  0.72639170  0.24277832  0.98946355    -0.02600
H1927       H  0.66400733  0.29523711  0.99935760     0.04800
C1928       C  0.71510440  0.32245438  0.99531369     0.20300
H1929       H  0.74468037  0.22984428  0.98536103     0.10000
C1930       C  0.73033336  0.33424061  0.01853896    -0.16000
C1931       C  0.73778094  0.36337463  0.01918111     0.03000
C1932       C  0.72951299  0.38141308  0.99626118    -0.11300
C1933       C  0.71416213  0.36937981  0.97307414    -0.01300
C1934       C  0.70698986  0.34022369  0.97246051    -0.06500
H1935       H  0.73698306  0.32050415  0.03599388     0.06000
H1936       H  0.70745091  0.38272255  0.95534418     0.09400
Br1937     Br  0.77072129  0.28541672  0.98469428    -0.06200
Br1938     Br  0.63603991  0.23986196  0.99701901    -0.03100
Br1939     Br  0.76072280  0.37628535  0.05115390    -0.00300
Br1940     Br  0.68703330  0.32544888  0.93945900    -0.04700
C1941       C  0.73694168  0.13115724  0.98100580    -0.12100
C1942       C  0.75269565  0.13599555  0.95556885     0.03400
C1943       C  0.77949560  0.12358006  0.95202378    -0.12600
C1944       C  0.79078448  0.10574284  0.97323224     0.18300
C1945       C  0.77367804  0.09839347  0.99715177    -0.09600
C1946       C  0.74698732  0.11126987  0.00101241    -0.02600
H1947       H  0.79219303  0.12903780  0.93333271     0.04800
C1948       C  0.82150476  0.09813622  0.97194228     0.20300
H1949       H  0.73494529  0.10708451  0.02043467     0.10000
C1950       C  0.84049080  0.11095841  0.99166753    -0.16000
C1951       C  0.86944639  0.10376499  0.99222317     0.03000
C1952       C  0.87994437  0.08309847  0.97296246    -0.11300
C1953       C  0.86129040  0.07151573  0.95213059    -0.01300
C1954       C  0.83233626  0.07912574  0.95128912    -0.06500
H1955       H  0.83262750  0.12642507  0.00697484     0.06000
H1956       H  0.86878159  0.05519626  0.93759853     0.09400
Br1957     Br  0.78647797  0.07157993  0.02541632    -0.06200
Br1958     Br  0.73925443  0.16085058  0.92574298    -0.03100
Br1959     Br  0.89381099  0.12283727  0.01973087    -0.00300
Br1960     Br  0.80807342  0.06168118  0.92278398    -0.04700
C1961       C  0.28898234  0.22856881  0.99356571    -0.12100
C1962       C  0.31085435  0.24977235  0.98968878     0.03400
C1963       C  0.30391164  0.27889074  0.98866299    -0.12600
C1964       C  0.27554493  0.28765317  0.99174114     0.18300
C1965       C  0.25386913  0.26704928  0.99575066    -0.09600
C1966       C  0.26063199  0.23819853  0.99710040    -0.02600
H1967       H  0.32079635  0.29486279  0.98603646     0.04800
C1968       C  0.26880210  0.31834982  0.99296009     0.20300
H1969       H  0.24308520  0.22404898  0.00231471     0.10000
C1970       C  0.25179825  0.33035682  0.97136890    -0.16000
C1971       C  0.24292763  0.35877125  0.97323571     0.03000
C1972       C  0.25219614  0.37599729  0.99647314    -0.11300
C1973       C  0.26823573  0.36344083  0.01859060    -0.01300
C1974       C  0.27650902  0.33491105  0.01702275    -0.06500
H1975       H  0.24463893  0.31723682  0.95347331     0.06000
H1976       H  0.27470307  0.37593380  0.03713767     0.09400
Br1977     Br  0.21458383  0.27726337  0.00143983    -0.06200
Br1978     Br  0.35082267  0.24111191  0.98689869    -0.03100
Br1979     Br  0.21585931  0.37173863  0.94517606    -0.00300
Br1980     Br  0.29715902  0.31915242  0.04886848    -0.04700
C1981       C  0.11734497  0.05779397  0.97800963    -0.12100
C1982       C  0.12471714  0.08391126  0.96468428     0.03400
C1983       C  0.15276638  0.09465969  0.96675604    -0.12600
C1984       C  0.17362385  0.07999163  0.98252170     0.18300
C1985       C  0.16617818  0.05374523  0.99574157    -0.09600
C1986       C  0.13828743  0.04269831  0.99307061    -0.02600
H1987       H  0.15805330  0.11513276  0.95698722     0.04800
C1988       C  0.20201654  0.09387817  0.98703479     0.20300
H1989       H  0.13252596  0.02303940  0.00413826     0.10000
C1990       C  0.20968378  0.10310815  0.01472964    -0.16000
C1991       C  0.23474230  0.11926918  0.01941532     0.03000
C1992       C  0.25286095  0.12607240  0.99625670    -0.11300
C1993       C  0.24495184  0.11725163  0.96855212    -0.01300
C1994       C  0.22009604  0.10084408  0.96383887    -0.06500
H1995       H  0.19542784  0.09884396  0.03257534     0.06000
H1996       H  0.25756969  0.12419546  0.95029960     0.09400
Br1997     Br  0.19285397  0.03281598  0.01869120    -0.06200
Br1998     Br  0.09689798  0.10604055  0.94441757    -0.03100
Br1999     Br  0.24159503  0.13427971  0.05713225    -0.00300
Br2000     Br  0.21151793  0.08907525  0.92527590    -0.04700
C2001       C  0.71244088  0.81051383  0.49966973    -0.12100
C2002       C  0.72352150  0.79090403  0.47929423     0.03400
C2003       C  0.75216461  0.78272379  0.48050350    -0.12600
C2004       C  0.77081712  0.79356256  0.50150633     0.18300
C2005       C  0.76049958  0.81356694  0.52140053    -0.09600
C2006       C  0.73172047  0.82175722  0.52046892    -0.02600
H2007       H  0.76005008  0.76772940  0.46473660     0.04800
C2008       C  0.80134153  0.78516524  0.50053278     0.20300
H2009       H  0.72511515  0.83712313  0.53622081     0.10000
C2010       C  0.81757037  0.79292516  0.47645571    -0.16000
C2011       C  0.84608062  0.78466966  0.47362765     0.03000
C2012       C  0.85933222  0.76856962  0.49565409    -0.11300
C2013       C  0.84287422  0.76082014  0.51978811    -0.01300
C2014       C  0.81402975  0.76832648  0.52202319    -0.06500
H2015       H  0.80787918  0.80554027  0.45960992     0.06000
H2016       H  0.85233178  0.74847021  0.53691104     0.09400
Br2017     Br  0.78519988  0.83139581  0.54943205    -0.06200
Br2018     Br  0.70105842  0.77399683  0.44885824    -0.03100
Br2019     Br  0.86529935  0.79750789  0.43948125    -0.00300
Br2020     Br  0.79248280  0.75344010  0.55382235    -0.04700
C2021       C  0.54147988  0.63616136  0.51326249    -0.12100
C2022       C  0.52434402  0.66063966  0.51006267     0.03400
C2023       C  0.53720266  0.68800245  0.50938258    -0.12600
C2024       C  0.56692837  0.69143299  0.51234736     0.18300
C2025       C  0.58384821  0.66717658  0.51693316    -0.09600
C2026       C  0.57114692  0.63984321  0.51706916    -0.02600
H2027       H  0.52406531  0.70661788  0.50590786     0.04800
C2028       C  0.58036413  0.72016326  0.50929541     0.20300
H2029       H  0.58456832  0.62130676  0.51984096     0.10000
C2030       C  0.58755988  0.73599122  0.53391248    -0.16000
C2031       C  0.60352545  0.76157337  0.53179883     0.03000
C2032       C  0.61213990  0.77183188  0.50464505    -0.11300
C2033       C  0.60453207  0.75616242  0.48006643    -0.01300
C2034       C  0.58853308  0.73066931  0.48216794    -0.06500
H2035       H  0.58174391  0.72779685  0.55488407     0.06000
H2036       H  0.61211490  0.76314598  0.45923324     0.09400
Br2037     Br  0.62452359  0.67039004  0.52223998    -0.06200
Br2038     Br  0.48372589  0.65798793  0.50436198    -0.03100
Br2039     Br  0.61499804  0.78023682  0.56671542    -0.00300
Br2040     Br  0.57983140  0.71000910  0.44757895    -0.04700
C2041       C  0.69506406  0.79685143  0.99904780    -0.12100
C2042       C  0.67417877  0.77516028  0.99343620     0.03400
C2043       C  0.68204877  0.74622749  0.99252313    -0.12600
C2044       C  0.71005870  0.73782432  0.99918784     0.18300
C2045       C  0.73015764  0.75902123  0.00741989    -0.09600
C2046       C  0.72256721  0.78780141  0.00758082    -0.02600
H2047       H  0.66603154  0.73011529  0.98696809     0.04800
C2048       C  0.71790725  0.70700519  0.99830536     0.20300
H2049       H  0.73847134  0.80261983  0.01577944     0.10000
C2050       C  0.74084492  0.69833250  0.98095355    -0.16000
C2051       C  0.74964235  0.66972326  0.98049533     0.03000
C2052       C  0.73509982  0.64907275  0.99729419    -0.11300
C2053       C  0.71209276  0.65767184  0.01440045    -0.01300
C2054       C  0.70343693  0.68620652  0.01506791    -0.06500
H2055       H  0.75219352  0.71400219  0.96792998     0.06000
H2056       H  0.70048365  0.64194796  0.02714375     0.09400
Br2057     Br  0.76806730  0.75005169  0.02039925    -0.06200
Br2058     Br  0.63418824  0.78309673  0.98887849    -0.03100
Br2059     Br  0.78260612  0.66036152  0.95805817    -0.00300
Br2060     Br  0.67239237  0.69541052  0.04017354    -0.04700
C2061       C  0.73149599  0.89940338  0.00336211    -0.12100
C2062       C  0.75304164  0.89532216  0.02431280     0.03400
C2063       C  0.77596930  0.91460631  0.02627051    -0.12600
C2064       C  0.77771943  0.93862805  0.00838536     0.18300
C2065       C  0.75530773  0.94383405  0.98877491    -0.09600
C2066       C  0.73236210  0.92424097  0.98642615    -0.02600
H2067       H  0.79311169  0.91025952  0.04128235     0.04800
C2068       C  0.80518263  0.95479432  0.00762860     0.20300
H2069       H  0.71568678  0.92793624  0.97072445     0.10000
C2070       C  0.82114352  0.95378130  0.98233782    -0.16000
C2071       C  0.84943538  0.96354602  0.98162219     0.03000
C2072       C  0.86268164  0.97427839  0.00686959    -0.11300
C2073       C  0.84622736  0.97675042  0.03190435    -0.01300
C2074       C  0.81770199  0.96696407  0.03248246    -0.06500
H2075       H  0.81187126  0.94422184  0.96319074     0.06000
H2076       H  0.85584607  0.98531950  0.05133256     0.09400
Br2077     Br  0.75537435  0.97705968  0.96452345    -0.06200
Br2078     Br  0.75234015  0.86447514  0.05173112    -0.03100
Br2079     Br  0.86815868  0.96183573  0.94504032    -0.00300
Br2080     Br  0.79690297  0.97006515  0.06776415    -0.04700
C2081       C  0.29240327  0.79268152  0.00516241    -0.12100
C2082       C  0.31440853  0.77397225  0.01420309     0.03400
C2083       C  0.30940309  0.74429000  0.01432903    -0.12600
C2084       C  0.28360094  0.73270967  0.00393635     0.18300
C2085       C  0.26311142  0.75075771  0.99206385    -0.09600
C2086       C  0.26771761  0.78023001  0.99239516    -0.02600
H2087       H  0.32588118  0.73012364  0.02205976     0.04800
C2088       C  0.27821292  0.70169690  0.00491350     0.20300
H2089       H  0.25195750  0.79311485  0.98167962     0.10000
C2090       C  0.26162598  0.69039137  0.02730596    -0.16000
C2091       C  0.25347339  0.66147059  0.02750456     0.03000
C2092       C  0.26208501  0.64345452  0.00484025    -0.11300
C2093       C  0.27892334  0.65499400  0.98255162    -0.01300
C2094       C  0.28697610  0.68387716  0.98245771    -0.06500
H2095       H  0.25440281  0.70433936  0.04431865     0.06000
H2096       H  0.28606776  0.64146334  0.96516992     0.09400
Br2097     Br  0.22876993  0.73600704  0.97432510    -0.06200
Br2098     Br  0.35252479  0.78657273  0.02423100    -0.03100
Br2099     Br  0.22913414  0.64865909  0.05827232    -0.00300
Br2100     Br  0.30916749  0.69831004  0.95088434    -0.04700
C2101       C  0.10672718  0.94902857  0.01862792    -0.12100
C2102       C  0.11605928  0.92992242  0.04013831     0.03400
C2103       C  0.14436541  0.91979094  0.03949775    -0.12600
C2104       C  0.16374280  0.92902760  0.01818534     0.18300
C2105       C  0.15505657  0.94965080  0.99829038    -0.09600
C2106       C  0.12709004  0.95929706  0.99860292    -0.02600
H2107       H  0.15101205  0.90402456  0.05510612     0.04800
C2108       C  0.19171494  0.91498768  0.01439054     0.20300
H2109       H  0.12123710  0.97487038  0.98247678     0.10000
C2110       C  0.19512892  0.89698641  0.99058629    -0.16000
C2111       C  0.22129335  0.88408223  0.98503341     0.03000
C2112       C  0.24479105  0.88893756  0.00357027    -0.11300
C2113       C  0.24177553  0.90789062  0.02674002    -0.01300
C2114       C  0.21538219  0.92072555  0.03238920    -0.06500
H2115       H  0.17726242  0.89301923  0.97616891     0.06000
H2116       H  0.25963644  0.91186913  0.04108779     0.09400
Br2117     Br  0.18050452  0.96493554  0.96959129    -0.06200
Br2118     Br  0.09132072  0.91607762  0.06998402    -0.03100
Br2119     Br  0.22390982  0.86029827  0.95152119    -0.00300
Br2120     Br  0.21251725  0.94576210  0.06481143    -0.04700
C2121       C  0.36136327  0.01078101  0.26460774    -0.12100
C2122       C  0.34179804  0.03055609  0.25314198     0.03400
C2123       C  0.31309081  0.02975355  0.26186516    -0.12600
C2124       C  0.30334851  0.00980407  0.28227874     0.18300
C2125       C  0.32284180  0.99031926  0.29405700    -0.09600
C2126       C  0.35146325  0.99072803  0.28502013    -0.02600
H2127       H  0.29819084  0.04469615  0.25253265     0.04800
C2128       C  0.27247131  0.00886033  0.28980678     0.20300
H2129       H  0.36623888  0.97582236  0.29461964     0.10000
C2130       C  0.25448554  0.98890782  0.27612712    -0.16000
C2131       C  0.22487243  0.98861538  0.28076716     0.03000
C2132       C  0.21218586  0.00888414  0.29956342    -0.11300
C2133       C  0.23084160  0.02833612  0.31394690    -0.01300
C2134       C  0.26053850  0.02841061  0.30914429    -0.06500
H2135       H  0.26354558  0.97370999  0.26123805     0.06000
H2136       H  0.22290595  0.04389793  0.32886608     0.09400
Br2137     Br  0.31149423  0.96362007  0.32333792    -0.06200
Br2138     Br  0.35268311  0.05843003  0.22471567    -0.03100
Br2139     Br  0.20331770  0.96006904  0.25969279    -0.00300
Br2140     Br  0.28426177  0.05556843  0.32948805    -0.04700
C2141       C  0.62959790  0.01858816  0.25500291    -0.12100
C2142       C  0.64091884  0.02810605  0.28141882     0.03400
C2143       C  0.67026354  0.02630546  0.28683067    -0.12600
C2144       C  0.68899261  0.01525001  0.26623120     0.18300
C2145       C  0.67752073  0.00511075  0.23993026    -0.09600
C2146       C  0.64801335  0.00678000  0.23460144    -0.02600
H2147       H  0.67851133  0.03325862  0.30748115     0.04800
C2148       C  0.72007353  0.01407387  0.27331085     0.20300
H2149       H  0.63939685  0.99886117  0.21444594     0.10000
C2150       C  0.73423964  0.98783325  0.27274793    -0.16000
C2151       C  0.76323401  0.98601694  0.28019834     0.03000
C2152       C  0.77822833  0.01033057  0.29146030    -0.11300
C2153       C  0.76399114  0.03679664  0.29094859    -0.01300
C2154       C  0.73559932  0.03884686  0.28161026    -0.06500
H2155       H  0.72282031  0.96863307  0.26588811     0.06000
H2156       H  0.77508052  0.05654558  0.29626277     0.09400
Br2157     Br  0.70095027  0.98931476  0.21028774    -0.06200
Br2158     Br  0.61691648  0.04152184  0.31178540    -0.03100
Br2159     Br  0.78113855  0.95013500  0.27176310    -0.00300
Br2160     Br  0.71976664  0.07646784  0.27839709    -0.04700
C2161       C  0.43417267  0.94182449  0.34353030    -0.12100
C2162       C  0.44634643  0.93716371  0.37100846     0.03400
C2163       C  0.43207836  0.91957886  0.39086213    -0.12600
C2164       C  0.40579465  0.90640161  0.38404824     0.18300
C2165       C  0.39347476  0.91114984  0.35696201    -0.09600
C2166       C  0.40761681  0.92864228  0.33701829    -0.02600
H2167       H  0.44160616  0.91602019  0.41175615     0.04800
C2168       C  0.39122963  0.88818048  0.40564196     0.20300
H2169       H  0.39768165  0.93193160  0.31627780     0.10000
C2170       C  0.36703864  0.89862491  0.41961526    -0.16000
C2171       C  0.35242588  0.88197567  0.43996812     0.03000
C2172       C  0.36201257  0.85410016  0.44656348    -0.11300
C2173       C  0.38655149  0.84391921  0.43279852    -0.01300
C2174       C  0.40111585  0.86067161  0.41246264    -0.06500
H2175       H  0.35959635  0.91996460  0.41474118     0.06000
H2176       H  0.39415292  0.82260159  0.43747646     0.09400
Br2177     Br  0.35773659  0.89348048  0.34599460    -0.06200
Br2178     Br  0.48286241  0.95266306  0.38278606    -0.03100
Br2179     Br  0.32078041  0.89951727  0.45901635    -0.00300
Br2180     Br  0.43377223  0.84475256  0.39379922    -0.04700
C2181       C  0.62886248  0.85345507  0.44474047    -0.12100
C2182       C  0.60158269  0.84714804  0.43265261     0.03400
C2183       C  0.59035482  0.86476794  0.41106277    -0.12600
C2184       C  0.60570858  0.88874739  0.40095126     0.18300
C2185       C  0.63298161  0.89479853  0.41238532    -0.09600
C2186       C  0.64427849  0.87735474  0.43397519    -0.02600
H2187       H  0.56938819  0.85982990  0.40219021     0.04800
C2188       C  0.59251084  0.90793066  0.37936574     0.20300
H2189       H  0.66505072  0.88302323  0.44284527     0.10000
C2190       C  0.58038961  0.93365066  0.38845679    -0.16000
C2191       C  0.56772014  0.95244956  0.36886572     0.03000
C2192       C  0.56578092  0.94499295  0.33937652    -0.11300
C2193       C  0.57897847  0.91953612  0.33034750    -0.01300
C2194       C  0.59251935  0.90136872  0.34993182    -0.06500
H2195       H  0.58126267  0.93938051  0.41097569     0.06000
H2196       H  0.57867330  0.91347486  0.30792014     0.09400
Br2197     Br  0.65545298  0.92684478  0.39903961    -0.06200
Br2198     Br  0.57878636  0.81432061  0.44313370    -0.03100
Br2199     Br  0.55582963  0.98868336  0.38400962    -0.00300
Br2200     Br  0.61166799  0.86834260  0.33545462    -0.04700
C2201       C  0.43103427  0.07894365  0.34678648    -0.12100
C2202       C  0.40169025  0.08545475  0.34415869     0.03400
C2203       C  0.38837715  0.10136731  0.36546904    -0.12600
C2204       C  0.40380564  0.11107443  0.38939455     0.18300
C2205       C  0.43277761  0.10394948  0.39258491    -0.09600
C2206       C  0.44616936  0.08788650  0.37136243    -0.02600
H2207       H  0.36590333  0.10638791  0.36329953     0.04800
C2208       C  0.38911991  0.12824471  0.41104422     0.20300
H2209       H  0.46863351  0.08294230  0.37376387     0.10000
C2210       C  0.36821617  0.11504605  0.42825791    -0.16000
C2211       C  0.35403580  0.13068314  0.44923563     0.03000
C2212       C  0.36154925  0.15971490  0.45367848    -0.11300
C2213       C  0.38234351  0.17288655  0.43632848    -0.01300
C2214       C  0.39545838  0.15760902  0.41444839    -0.06500
H2215       H  0.36288740  0.09255163  0.42526265     0.06000
H2216       H  0.38761866  0.19539567  0.43911647     0.09400
Br2217     Br  0.45468076  0.11553277  0.42564671    -0.06200
Br2218     Br  0.37813932  0.07234552  0.31282681    -0.03100
Br2219     Br  0.32500554  0.11126911  0.47128008    -0.00300
Br2220     Br  0.42016163  0.17808021  0.38846120    -0.04700
C2221       C  0.49111221  0.14925710  0.23993100    -0.12100
C2222       C  0.49849982  0.15944408  0.21250289     0.03400
C2223       C  0.49731500  0.18861055  0.20655519    -0.12600
C2224       C  0.48919216  0.20815841  0.22769843     0.18300
C2225       C  0.48066351  0.19795028  0.25491566    -0.09600
C2226       C  0.48146643  0.16848912  0.26078856    -0.02600
H2227       H  0.50321388  0.19620337  0.18537393     0.04800
C2228       C  0.49095567  0.23899556  0.22070307     0.20300
H2229       H  0.47518369  0.16066597  0.28176684     0.10000
C2230       C  0.46605661  0.25517483  0.21930253    -0.16000
C2231       C  0.46712098  0.28402305  0.21103008     0.03000
C2232       C  0.49353080  0.29703232  0.20250263    -0.11300
C2233       C  0.51850197  0.28050749  0.20492590    -0.01300
C2234       C  0.51736408  0.25199718  0.21384241    -0.06500
H2235       H  0.44565864  0.24532095  0.22486560     0.06000
H2236       H  0.53949712  0.28965805  0.20133203     0.09400
Br2237     Br  0.46909705  0.22336993  0.28494371    -0.06200
Br2238     Br  0.50919671  0.13426300  0.18194749    -0.03100
Br2239     Br  0.43165249  0.30421560  0.21361934    -0.00300
Br2240     Br  0.55286762  0.23206110  0.21775793    -0.04700
C2241       C  0.49596875  0.88170920  0.23395991    -0.12100
C2242       C  0.51257807  0.86975487  0.21182914     0.03400
C2243       C  0.51060384  0.84046151  0.20597892    -0.12600
C2244       C  0.49212739  0.82253863  0.22159613     0.18300
C2245       C  0.47536199  0.83425908  0.24361224    -0.09600
C2246       C  0.47724643  0.86368550  0.24949776    -0.02600
H2247       H  0.52342960  0.83157196  0.18890197     0.04800
C2248       C  0.49200469  0.79156325  0.21507971     0.20300
H2249       H  0.46417215  0.87250128  0.26640838     0.10000
C2250       C  0.51602463  0.77574912  0.22256196    -0.16000
C2251       C  0.51813638  0.74688562  0.21509196     0.03000
C2252       C  0.49542311  0.73270042  0.20011677    -0.11300
C2253       C  0.47149580  0.74919967  0.19218518    -0.01300
C2254       C  0.46988033  0.77831639  0.19924972    -0.06500
H2255       H  0.53352442  0.78612648  0.23405720     0.06000
H2256       H  0.45375647  0.74015167  0.18034723     0.09400
Br2257     Br  0.45021692  0.81092258  0.26656753    -0.06200
Br2258     Br  0.53675487  0.89221020  0.18722159    -0.03100
Br2259     Br  0.55306881  0.72857612  0.22631544    -0.00300
Br2260     Br  0.43772537  0.79957072  0.18560385    -0.04700
C2261       C  0.65148722  0.14356577  0.03969009    -0.12100
C2262       C  0.63037605  0.12210237  0.03372465     0.03400
C2263       C  0.61372488  0.11049971  0.05598470    -0.12600
C2264       C  0.61629611  0.12056586  0.08422480     0.18300
C2265       C  0.63690442  0.14217438  0.09020092    -0.09600
C2266       C  0.65444756  0.15296267  0.06828681    -0.02600
H2267       H  0.59819955  0.09369287  0.05108657     0.04800
C2268       C  0.59813941  0.10751969  0.10721959     0.20300
H2269       H  0.67035596  0.16919657  0.07375833     0.10000
C2270       C  0.61148176  0.09529011  0.13118882    -0.16000
C2271       C  0.59548774  0.08288202  0.15342201     0.03000
C2272       C  0.56531783  0.08137970  0.15151285    -0.11300
C2273       C  0.55191533  0.09293115  0.12718844    -0.01300
C2274       C  0.56792615  0.10630792  0.10540459    -0.06500
H2275       H  0.63463190  0.09533544  0.13261405     0.06000
H2276       H  0.52878479  0.09214200  0.12542850     0.09400
Br2277     Br  0.64105533  0.15908224  0.12756898    -0.06200
Br2278     Br  0.62040706  0.10877093  0.99606071    -0.03100
Br2279     Br  0.61642386  0.06715256  0.18505493    -0.00300
Br2280     Br  0.54722801  0.12377233  0.07452931    -0.04700
C2281       C  0.64481292  0.88172136  0.04423674    -0.12100
C2282       C  0.65236637  0.90825367  0.05715396     0.03400
C2283       C  0.63408924  0.92070984  0.07703505    -0.12600
C2284       C  0.60845460  0.90714492  0.08513557     0.18300
C2285       C  0.60061619  0.88084141  0.07232967    -0.09600
C2286       C  0.61872885  0.86838263  0.05203745    -0.02600
H2287       H  0.64029881  0.94091281  0.08692085     0.04800
C2288       C  0.59111130  0.92069970  0.10776527     0.20300
H2289       H  0.61238740  0.84816822  0.04229752     0.10000
C2290       C  0.56408489  0.93157943  0.10112409    -0.16000
C2291       C  0.54837819  0.94664637  0.12161914     0.03000
C2292       C  0.56037977  0.95213554  0.14906789    -0.11300
C2293       C  0.58730461  0.94063963  0.15562236    -0.01300
C2294       C  0.60230821  0.92465011  0.13554403    -0.06500
H2295       H  0.55514374  0.92826266  0.07988984     0.06000
H2296       H  0.59674301  0.94376532  0.17666704     0.09400
Br2297     Br  0.56612025  0.86065271  0.08280389    -0.06200
Br2298     Br  0.68814871  0.92793738  0.05127355    -0.03100
Br2299     Br  0.51008315  0.95701863  0.11114845    -0.00300
Br2300     Br  0.63752009  0.90756503  0.14749975    -0.04700
C2301       C  0.33207040  0.88374810  0.05052390    -0.12100
C2302       C  0.32193534  0.89100893  0.07792271     0.03400
C2303       C  0.34007648  0.90550075  0.09716134    -0.12600
C2304       C  0.36847626  0.91214681  0.08963552     0.18300
C2305       C  0.37887695  0.90377813  0.06266521    -0.09600
C2306       C  0.36057767  0.88989092  0.04326424    -0.02600
H2307       H  0.33220399  0.91117577  0.11822118     0.04800
C2308       C  0.38737825  0.92628913  0.11084300     0.20300
H2309       H  0.36894767  0.88284264  0.02286006     0.10000
C2310       C  0.39795192  0.91012241  0.13371519    -0.16000
C2311       C  0.41569325  0.92272458  0.15450626     0.03000
C2312       C  0.42292333  0.95218655  0.15265207    -0.11300
C2313       C  0.41266095  0.96820872  0.12934724    -0.01300
C2314       C  0.39486737  0.95551440  0.10860877    -0.06500
H2315       H  0.39251774  0.88750753  0.13525452     0.06000
H2316       H  0.41792061  0.99084537  0.12762955     0.09400
Br2317     Br  0.41827497  0.90913318  0.05217658    -0.06200
Br2318     Br  0.28410985  0.88049755  0.09035649    -0.03100
Br2319     Br  0.43058577  0.89812507  0.18382442    -0.00300
Br2320     Br  0.38044924  0.97897926  0.07818497    -0.04700
C2321       C  0.33717926  0.14939334  0.04892636    -0.12100
C2322       C  0.36649100  0.15638923  0.05199746     0.03400
C2323       C  0.38231994  0.14452438  0.07450729    -0.12600
C2324       C  0.36946643  0.12523551  0.09381921     0.18300
C2325       C  0.34022216  0.11811938  0.09063712    -0.09600
C2326       C  0.32438743  0.13012300  0.06825694    -0.02600
H2327       H  0.40497202  0.14954857  0.07635652     0.04800
C2328       C  0.38743771  0.11091003  0.11554175     0.20300
H2329       H  0.30208626  0.12412705  0.06576402     0.10000
C2330       C  0.39480792  0.12516799  0.14105303    -0.16000
C2331       C  0.41202991  0.11199135  0.16177471     0.03000
C2332       C  0.42204611  0.08385719  0.15708946    -0.11300
C2333       C  0.41496980  0.07000943  0.13118371    -0.01300
C2334       C  0.39796083  0.08330137  0.11053814    -0.06500
H2335       H  0.38729447  0.14670373  0.14474654     0.06000
H2336       H  0.42249446  0.04856716  0.12701262     0.09400
Br2337     Br  0.32125339  0.09156291  0.11590137    -0.06200
Br2338     Br  0.38644341  0.17974213  0.02448998    -0.03100
Br2339     Br  0.42255110  0.13437407  0.19488393    -0.00300
Br2340     Br  0.39009373  0.06322336  0.07541568    -0.04700
C2341       C  0.71246524  0.21099102  0.50210789    -0.12100
C2342       C  0.72484161  0.22879466  0.48049515     0.03400
C2343       C  0.75434595  0.23440522  0.48024992    -0.12600
C2344       C  0.77227258  0.22265179  0.50103040     0.18300
C2345       C  0.76061956  0.20434757  0.52194172    -0.09600
C2346       C  0.73115273  0.19856431  0.52236331    -0.02600
H2347       H  0.76335274  0.24840805  0.46394903     0.04800
C2348       C  0.80308222  0.23008463  0.50085792     0.20300
H2349       H  0.72351015  0.18459465  0.53909769     0.10000
C2350       C  0.81346279  0.25192781  0.51897539    -0.16000
C2351       C  0.84265066  0.25925353  0.51957675     0.03000
C2352       C  0.86182237  0.24474027  0.50155928    -0.11300
C2353       C  0.85124126  0.22300895  0.48335601    -0.01300
C2354       C  0.82217885  0.21552760  0.48299989    -0.06500
H2355       H  0.79878121  0.26326048  0.53271423     0.06000
H2356       H  0.86580120  0.21125279  0.46989072     0.09400
Br2357     Br  0.78436655  0.18689770  0.55049559    -0.06200
Br2358     Br  0.70288808  0.24728547  0.45100833    -0.03100
Br2359     Br  0.85488153  0.28990618  0.54442188    -0.00300
Br2360     Br  0.80963395  0.18465938  0.45859488    -0.04700
C2361       C  0.62022457  0.17662557  0.45391439    -0.12100
C2362       C  0.59582396  0.15860606  0.45872870     0.03400
C2363       C  0.58388728  0.14260326  0.43611838    -0.12600
C2364       C  0.59589700  0.14312370  0.40866867     0.18300
C2365       C  0.61952865  0.16141224  0.40343948    -0.09600
C2366       C  0.63108116  0.17817496  0.42570385    -0.02600
H2367       H  0.56541711  0.12885816  0.44018622     0.04800
C2368       C  0.58334556  0.12441543  0.38593091     0.20300
H2369       H  0.64926283  0.19202363  0.42092849     0.10000
C2370       C  0.57082237  0.13696814  0.36171181    -0.16000
C2371       C  0.55818669  0.12007118  0.34017297     0.03000
C2372       C  0.55778414  0.08988745  0.34269545    -0.11300
C2373       C  0.56989500  0.07735824  0.36715836    -0.01300
C2374       C  0.58271721  0.09427097  0.38858174    -0.06500
H2375       H  0.57053311  0.16010238  0.35975658     0.06000
H2376       H  0.56981199  0.05425266  0.36940204     0.09400
Br2377     Br  0.63813574  0.16274005  0.36679127    -0.06200
Br2378     Br  0.57804800  0.15185147  0.49514970    -0.03100
Br2379     Br  0.54002826  0.13963050  0.30896654    -0.00300
Br2380     Br  0.59988760  0.07500897  0.42051066    -0.04700
C2381       C  0.56313723  0.40003774  0.53134896    -0.12100
C2382       C  0.54650509  0.37586024  0.53916492     0.03400
C2383       C  0.55838773  0.34852980  0.53815890    -0.12600
C2384       C  0.58686891  0.34498621  0.52963308     0.18300
C2385       C  0.60411768  0.36940527  0.52403363    -0.09600
C2386       C  0.59216368  0.39672377  0.52495551    -0.02600
H2387       H  0.54510276  0.32992064  0.54301684     0.04800
C2388       C  0.59759904  0.31571553  0.52482730     0.20300
H2389       H  0.60521226  0.41528097  0.51941055     0.10000
C2390       C  0.59908736  0.30514365  0.49666595    -0.16000
C2391       C  0.60991696  0.27787660  0.49117132     0.03000
C2392       C  0.61962668  0.26090328  0.51399274    -0.11300
C2393       C  0.61737797  0.27109960  0.54222891    -0.01300
C2394       C  0.60622697  0.29824626  0.54777283    -0.06500
H2395       H  0.59217024  0.31833004  0.47889940     0.06000
H2396       H  0.62519458  0.25829195  0.55989303     0.09400
Br2397     Br  0.64376723  0.36636944  0.51414851    -0.06200
Br2398     Br  0.50719729  0.37921759  0.55027353    -0.03100
Br2399     Br  0.61226117  0.26496178  0.45219796    -0.00300
Br2400     Br  0.60439307  0.31129085  0.58673309    -0.04700
C2401       C  0.20652691  0.00987988  0.70202647    -0.12100
C2402       C  0.21763905  0.99012442  0.72228254     0.03400
C2403       C  0.24643560  0.99160429  0.73034775    -0.12600
C2404       C  0.26487380  0.01236379  0.71877933     0.18300
C2405       C  0.25449399  0.03174179  0.69844244    -0.09600
C2406       C  0.22573105  0.03044677  0.69022517    -0.02600
H2407       H  0.25461745  0.97625032  0.74563585     0.04800
C2408       C  0.29545276  0.01168957  0.72628103     0.20300
H2409       H  0.21924599  0.04569644  0.67432591     0.10000
C2410       C  0.31293353  0.99317175  0.71099737    -0.16000
C2411       C  0.34210291  0.99183855  0.71695384     0.03000
C2412       C  0.35430837  0.00887146  0.73897224    -0.11300
C2413       C  0.33667582  0.02758814  0.75428514    -0.01300
C2414       C  0.30733825  0.02900707  0.74810899    -0.06500
H2415       H  0.30389707  0.98014928  0.69386131     0.06000
H2416       H  0.34573663  0.04115515  0.77096305     0.09400
Br2417     Br  0.27908565  0.05998784  0.68082173    -0.06200
Br2418     Br  0.19507747  0.96034476  0.74021449    -0.03100
Br2419     Br  0.36439415  0.96870943  0.69201449    -0.00300
Br2420     Br  0.28422629  0.05483981  0.76964874    -0.04700
C2421       C  0.62162613  0.00918697  0.72834376    -0.12100
C2422       C  0.64233246  0.03021086  0.73608108     0.03400
C2423       C  0.67007028  0.02908395  0.72458621    -0.12600
C2424       C  0.67774904  0.00733006  0.70530922     0.18300
C2425       C  0.65696238  0.98658563  0.69737091    -0.09600
C2426       C  0.62938710  0.98762097  0.70886715    -0.02600
H2427       H  0.68598458  0.04485247  0.73131442     0.04800
C2428       C  0.70813848  0.00491680  0.69614061     0.20300
H2429       H  0.61369428  0.97167085  0.70200412     0.10000
C2430       C  0.72381271  0.98140262  0.70553341    -0.16000
C2431       C  0.75314254  0.97924910  0.69996989     0.03000
C2432       C  0.76805542  0.00112475  0.68447197    -0.11300
C2433       C  0.75153971  0.02409180  0.67390803    -0.01300
C2434       C  0.72217336  0.02619089  0.67980689    -0.06500
H2435       H  0.71326964  0.96493003  0.71825682     0.06000
H2436       H  0.76094369  0.04124856  0.66157583     0.09400
Br2437     Br  0.66479741  0.95677148  0.67025104    -0.06200
Br2438     Br  0.63459789  0.05985071  0.76344957    -0.03100
Br2439     Br  0.77128758  0.94647476  0.71644746    -0.00300
Br2440     Br  0.70216311  0.05870944  0.66511404    -0.04700
C2441       C  0.35922296  0.16911394  0.54878841    -0.12100
C2442       C  0.37006988  0.18117141  0.57434102     0.03400
C2443       C  0.38228063  0.16339889  0.59515647    -0.12600
C2444       C  0.38333593  0.13363500  0.59090237     0.18300
C2445       C  0.37174430  0.12162087  0.56569094    -0.09600
C2446       C  0.36007085  0.13939549  0.54477803    -0.02600
H2447       H  0.39106434  0.17277092  0.61460607     0.04800
C2448       C  0.39746479  0.11538313  0.61236902     0.20300
H2449       H  0.35148299  0.12997071  0.52533074     0.10000
C2450       C  0.38131199  0.10314225  0.63463587    -0.16000
C2451       C  0.39409385  0.08503536  0.65472251     0.03000
C2452       C  0.42362405  0.07941985  0.65293572    -0.11300
C2453       C  0.43955238  0.09113989  0.63015137    -0.01300
C2454       C  0.42665377  0.10894372  0.60991293    -0.06500
H2455       H  0.35860735  0.10728354  0.63606090     0.06000
H2456       H  0.46215824  0.08675061  0.62830703     0.09400
Br2457     Br  0.37140982  0.08105853  0.55900456    -0.06200
Br2458     Br  0.36852703  0.22154003  0.58161910    -0.03100
Br2459     Br  0.36989877  0.06667757  0.68268133    -0.00300
Br2460     Br  0.44938098  0.12379712  0.57894950    -0.04700
C2461       C  0.55226615  0.08164617  0.65256784    -0.12100
C2462       C  0.58122918  0.09027050  0.65593339     0.03400
C2463       C  0.59386303  0.10890977  0.63610720    -0.12600
C2464       C  0.57825298  0.11894644  0.61265101     0.18300
C2465       C  0.54976184  0.10972952  0.60861179    -0.09600
C2466       C  0.53690710  0.09122710  0.62855244    -0.02600
H2467       H  0.61614975  0.11521989  0.63868246     0.04800
C2468       C  0.59295517  0.13692085  0.59123626     0.20300
H2469       H  0.51480190  0.08460131  0.62546439     0.10000
C2470       C  0.61067829  0.12356047  0.57130442    -0.16000
C2471       C  0.62521495  0.13964528  0.55062129     0.03000
C2472       C  0.62235450  0.16965860  0.55005382    -0.11300
C2473       C  0.60420911  0.18301248  0.56964764    -0.01300
C2474       C  0.58954250  0.16683178  0.59030757    -0.06500
H2475       H  0.61286808  0.10047261  0.57162916     0.06000
H2476       H  0.60175480  0.20605881  0.56908146     0.09400
Br2477     Br  0.52822681  0.12139247  0.57568099    -0.06200
Br2478     Br  0.60541808  0.07571230  0.68570683    -0.03100
Br2479     Br  0.64667426  0.11940782  0.52219365    -0.00300
Br2480     Br  0.56545394  0.18635878  0.61693900    -0.04700
C2481       C  0.55532712  0.94273816  0.65066478    -0.12100
C2482       C  0.55964272  0.95405365  0.62274131     0.03400
C2483       C  0.57288654  0.93749867  0.60168340    -0.12600
C2484       C  0.58280840  0.90998305  0.60781989     0.18300
C2485       C  0.58027840  0.89936728  0.63598885    -0.09600
C2486       C  0.56640872  0.91553513  0.65692286    -0.02600
H2487       H  0.57568566  0.94627214  0.58033213     0.04800
C2488       C  0.59677994  0.89337967  0.58476877     0.20300
H2489       H  0.56429842  0.90665922  0.67824438     0.10000
C2490       C  0.62197197  0.90429294  0.57224869    -0.16000
C2491       C  0.63588665  0.88925289  0.55049881     0.03000
C2492       C  0.62497197  0.86233381  0.54140365    -0.11300
C2493       C  0.59879916  0.85239859  0.55268734    -0.01300
C2494       C  0.58467241  0.86763981  0.57409919    -0.06500
H2495       H  0.63074875  0.92474714  0.57931939     0.06000
H2496       H  0.58931330  0.83250177  0.54507673     0.09400
Br2497     Br  0.59660237  0.86357021  0.64733110    -0.06200
Br2498     Br  0.55008522  0.99251740  0.61199921    -0.03100
Br2499     Br  0.66797354  0.90784904  0.53223894    -0.00300
Br2500     Br  0.54835316  0.85294785  0.58711509    -0.04700
C2501       C  0.36512088  0.84384800  0.54215241    -0.12100
C2502       C  0.36758165  0.83330574  0.57037114     0.03400
C2503       C  0.38136444  0.84997639  0.59149971    -0.12600
C2504       C  0.39125930  0.87801803  0.58557850     0.18300
C2505       C  0.38832202  0.88857789  0.55727866    -0.09600
C2506       C  0.37596920  0.87127919  0.53585775    -0.02600
H2507       H  0.38382795  0.84119003  0.61285078     0.04800
C2508       C  0.40445145  0.89587005  0.60897024     0.20300
H2509       H  0.37354962  0.87985361  0.51439283     0.10000
C2510       C  0.43153198  0.90864947  0.60477314    -0.16000
C2511       C  0.44384922  0.92713512  0.62524594     0.03000
C2512       C  0.42982413  0.93197978  0.65172357    -0.11300
C2513       C  0.40383451  0.91720984  0.65675252    -0.01300
C2514       C  0.39056763  0.90043557  0.63542163    -0.06500
H2515       H  0.44305295  0.90460491  0.58508247     0.06000
H2516       H  0.39317764  0.91930897  0.67714862     0.09400
Br2517     Br  0.39832681  0.92728699  0.54694153    -0.06200
Br2518     Br  0.35212272  0.79654892  0.58124401    -0.03100
Br2519     Br  0.48040607  0.94376434  0.61553987    -0.00300
Br2520     Br  0.35239719  0.88656989  0.64293747    -0.04700
C2521       C  0.48941341  0.14233339  0.76528210    -0.12100
C2522       C  0.49233933  0.14947563  0.79457630     0.03400
C2523       C  0.49208060  0.17820546  0.80325264    -0.12600
C2524       C  0.48873784  0.20019759  0.78310634     0.18300
C2525       C  0.48547593  0.19306440  0.75384592    -0.09600
C2526       C  0.48572088  0.16427111  0.74513542    -0.02600
H2527       H  0.49457653  0.18342816  0.82577976     0.04800
C2528       C  0.48962950  0.23052816  0.79267915     0.20300
H2529       H  0.48306449  0.15901017  0.72263868     0.10000
C2530       C  0.51329884  0.24767441  0.78542918    -0.16000
C2531       C  0.51401339  0.27704605  0.79142616     0.03000
C2532       C  0.49085175  0.29014785  0.80596423    -0.11300
C2533       C  0.46755126  0.27222360  0.81417808    -0.01300
C2534       C  0.46677480  0.24289354  0.80750540    -0.06500
H2535       H  0.53099432  0.23825623  0.77398950     0.06000
H2536       H  0.44896766  0.28065791  0.82458805     0.09400
Br2537     Br  0.48003670  0.22204665  0.72522973    -0.06200
Br2538     Br  0.49600700  0.12067325  0.82367273    -0.03100
Br2539     Br  0.54692645  0.29770835  0.77715590    -0.00300
Br2540     Br  0.43302008  0.22097008  0.81709974    -0.04700
C2541       C  0.49100640  0.72661249  0.79161461    -0.12100
C2542       C  0.48961139  0.74809280  0.81318159     0.03400
C2543       C  0.48915280  0.77706025  0.80559073    -0.12600
C2544       C  0.48860760  0.78539144  0.77680065     0.18300
C2545       C  0.48816790  0.76444509  0.75529550    -0.09600
C2546       C  0.48909880  0.73556290  0.76269491    -0.02600
H2547       H  0.48868497  0.79323895  0.82226642     0.04800
C2548       C  0.48768519  0.81602190  0.76950186     0.20300
H2549       H  0.48724494  0.72061099  0.74522544     0.10000
C2550       C  0.51131437  0.82885146  0.75599384    -0.16000
C2551       C  0.51124386  0.85781107  0.74854990     0.03000
C2552       C  0.48728062  0.87472345  0.75536979    -0.11300
C2553       C  0.46336667  0.86144020  0.76844548    -0.01300
C2554       C  0.46338727  0.83233231  0.77534651    -0.06500
H2555       H  0.52986701  0.81613030  0.75102374     0.06000
H2556       H  0.44468007  0.87377131  0.77383591     0.09400
Br2557     Br  0.48493660  0.77417837  0.71539595    -0.06200
Br2558     Br  0.48651727  0.74000697  0.85341057    -0.03100
Br2559     Br  0.54422568  0.87201771  0.72816685    -0.00300
Br2560     Br  0.42953517  0.81550656  0.79199871    -0.04700
C2561       C  0.34011328  0.14218628  0.95229060    -0.12100
C2562       C  0.33646488  0.11346173  0.94282623     0.03400
C2563       C  0.35504554  0.10225575  0.92243795    -0.12600
C2564       C  0.37778668  0.11862422  0.91140859     0.18300
C2565       C  0.38206144  0.14688703  0.92108596    -0.09600
C2566       C  0.36340608  0.15836603  0.94134554    -0.02600
H2567       H  0.35155103  0.08052583  0.91480470     0.04800
C2568       C  0.39595622  0.10584070  0.88905999     0.20300
H2569       H  0.36734994  0.18008468  0.94873192     0.10000
C2570       C  0.39491528  0.11670503  0.86108169    -0.16000
C2571       C  0.40944963  0.10337348  0.83865045     0.03000
C2572       C  0.42536943  0.07825553  0.84411174    -0.11300
C2573       C  0.42718397  0.06828886  0.87257623    -0.01300
C2574       C  0.41248215  0.08159055  0.89479484    -0.06500
H2575       H  0.38218727  0.13539805  0.85656371     0.06000
H2576       H  0.43944648  0.04944212  0.87764352     0.09400
Br2577     Br  0.41342984  0.17031706  0.90774084    -0.06200
Br2578     Br  0.30646331  0.08782589  0.95486142    -0.03100
Br2579     Br  0.40662957  0.12147350  0.80169973    -0.00300
Br2580     Br  0.41537337  0.06553179  0.93259329    -0.04700
C2581       C  0.41918097  0.94385515  0.84396991    -0.12100
C2582       C  0.40098055  0.95983433  0.86163472     0.03400
C2583       C  0.38516144  0.94627155  0.88330468    -0.12600
C2584       C  0.38746688  0.91674509  0.88840802     0.18300
C2585       C  0.40554601  0.90056789  0.87048220    -0.09600
C2586       C  0.42106482  0.91416589  0.84838232    -0.02600
H2587       H  0.37073099  0.95887983  0.89614889     0.04800
C2588       C  0.36973068  0.90337876  0.91157061     0.20300
H2589       H  0.43499771  0.90161939  0.83491847     0.10000
C2590       C  0.34941404  0.88206306  0.90439951    -0.16000
C2591       C  0.33132622  0.86992262  0.92519469     0.03000
C2592       C  0.33338089  0.87893872  0.95413229    -0.11300
C2593       C  0.35292321  0.90105191  0.96108318    -0.01300
C2594       C  0.37108147  0.91312275  0.94027354    -0.06500
H2595       H  0.34713696  0.87526585  0.88227437     0.06000
H2596       H  0.35450379  0.90875592  0.98290872     0.09400
Br2597     Br  0.41062710  0.86014706  0.87580467    -0.06200
Br2598     Br  0.39586719  0.00011452  0.85603508    -0.03100
Br2599     Br  0.30257841  0.84306731  0.91200115    -0.00300
Br2600     Br  0.39790820  0.94223575  0.95260921    -0.04700
C2601       C  0.55983012  0.94491716  0.84170810    -0.12100
C2602       C  0.56358401  0.91498171  0.84195878     0.03400
C2603       C  0.58076820  0.90252778  0.86308344    -0.12600
C2604       C  0.59432660  0.91948880  0.88412902     0.18300
C2605       C  0.59081030  0.94942245  0.88364980    -0.09600
C2606       C  0.57336441  0.96182081  0.86280263    -0.02600
H2607       H  0.58331976  0.87948762  0.86330624     0.04800
C2608       C  0.61228672  0.90566888  0.90620702     0.20300
H2609       H  0.57095199  0.98488163  0.86260576     0.10000
C2610       C  0.63786823  0.89262968  0.89798636    -0.16000
C2611       C  0.65574736  0.88006922  0.91844984     0.03000
C2612       C  0.64802534  0.88046525  0.94766042    -0.11300
C2613       C  0.62243285  0.89341220  0.95582237    -0.01300
C2614       C  0.60438720  0.90557751  0.93536754    -0.06500
H2615       H  0.64414047  0.89262591  0.87562485     0.06000
H2616       H  0.61613206  0.89347393  0.97818336     0.09400
Br2617     Br  0.61056668  0.97437366  0.91008401    -0.06200
Br2618     Br  0.54437348  0.89005235  0.81511042    -0.03100
Br2619     Br  0.69114795  0.86421394  0.90566019    -0.00300
Br2620     Br  0.56862136  0.92063629  0.94818301    -0.04700
C2621       C  0.65158391  0.14574054  0.94225563    -0.12100
C2622       C  0.62336618  0.15400509  0.93580803     0.03400
C2623       C  0.60716998  0.13826571  0.91597435    -0.12600
C2624       C  0.61831731  0.11392375  0.90279924     0.18300
C2625       C  0.64639027  0.10550858  0.90922721    -0.09600
C2626       C  0.66277529  0.12142295  0.92886601    -0.02600
H2627       H  0.58546115  0.14465804  0.91123461     0.04800
C2628       C  0.60043780  0.09863311  0.88152438     0.20300
H2629       H  0.68427805  0.11462901  0.93392061     0.10000
C2630       C  0.59520639  0.11212312  0.85532471    -0.16000
C2631       C  0.57712953  0.09956526  0.83490559     0.03000
C2632       C  0.56347385  0.07282714  0.84078809    -0.11300
C2633       C  0.56858567  0.05951663  0.86736613    -0.01300
C2634       C  0.58700890  0.07214864  0.88761966    -0.06500
H2635       H  0.60519621  0.13275857  0.85081749     0.06000
H2636       H  0.55854265  0.03902750  0.87230522     0.09400
Br2637     Br  0.66327862  0.07271435  0.89163341    -0.06200
Br2638     Br  0.60438407  0.18420836  0.95558040    -0.03100
Br2639     Br  0.57171554  0.12118376  0.80019855    -0.00300
Br2640     Br  0.59273049  0.05288954  0.92348838    -0.04700
loop_ 
_geom_bond_atom_site_label_1 
_geom_bond_atom_site_label_2 
_geom_bond_distance 
_geom_bond_site_symmetry_2 
_ccdc_geom_bond_type 
O1          Zr37   2.451       .  S
O1           C12   1.295       .  A
O2          Zr36   2.449       .  S
O2           C13   1.294       .  A
O3           Zr9   2.454       .  S
O3           C14   1.295       .  A
O4           Zr9   2.457       .  S
O4           C15   1.295       .  A
O5          Zr39   2.448       .  S
O5           C15   1.293       .  A
O6          Zr38   2.438       .  S
O6           C14   1.293   1_565  A
O7           Zr9   2.420       .  S
O7           C13   1.289       .  A
O8           Zr9   2.415       .  S
O8           C12   1.287       .  A
Zr9          O10   2.341       .  S
Zr9          O11   2.341       .  S
Zr9          O19   2.333       .  S
Zr9          O17   2.334       .  S
O10         Zr36   2.348       .  S
O10         Zr39   2.341       .  S
O11         Zr37   2.347       .  S
O11         Zr38   2.338   1_545  S
C12        C2632   1.481       .  S
C13        C2461   1.475       .  S
C14        C2421   1.487       .  S
C15        C2521   1.476       .  S
H16          O17   0.965       .  S
O17         Zr36   2.326       .  S
O17         Zr38   2.340   1_545  S
H18          O19   0.964       .  S
O19         Zr37   2.325       .  S
O19         Zr39   2.339       .  S
O20         Zr36   2.443   1_565  S
O20          C43   1.292       .  A
O21         Zr37   2.448   1_565  S
O21          C44   1.294       .  A
O22         Zr38   2.444       .  S
O22          C45   1.294       .  A
O23         Zr39   2.440       .  S
O23          C46   1.293       .  A
O24         Zr39   2.436       .  S
O24          C47   1.290       .  A
O25         Zr38   2.442       .  S
O25          C48   1.293       .  A
O26         Zr40   2.428       .  S
O26          C49   1.291       .  A
O27         Zr40   2.443       .  S
O27          C50   1.293   1_565  A
O28         Zr38   2.433       .  S
O28          C49   1.290       .  A
O29         Zr39   2.439       .  S
O29          C50   1.292       .  A
O30         Zr36   2.446   1_565  S
O30          C45   1.293       .  A
O31         Zr37   2.438   1_565  S
O31          C48   1.292       .  A
O32         Zr37   2.442       .  S
O32          C47   1.294       .  A
O33         Zr36   2.437       .  S
O33          C46   1.292       .  A
O34         Zr40   2.461       .  S
O34          C43   1.297       .  A
O35         Zr40   2.456       .  S
O35          C44   1.295       .  A
Zr36         O42   2.342   1_545  S
Zr36         O54   2.343       .  S
Zr37         O41   2.351       .  S
Zr37         O52   2.335   1_545  S
Zr38         O42   2.337       .  S
Zr38         O52   2.343       .  S
Zr39         O41   2.345       .  S
Zr39         O54   2.351       .  S
Zr40         O41   2.346   1_565  S
Zr40         O42   2.341       .  S
Zr40         O54   2.348   1_565  S
Zr40         O52   2.347       .  S
C43        C2512   1.499       .  S
C44        C2581   1.480       .  S
C45        C2481   1.493       .  S
C46        C2452   1.476       .  S
C47        C2572   1.490       .  S
C48        C2601   1.475       .  S
C49        C2552   1.481       .  S
C50        C2412   1.477       .  S
H51          O52   0.965       .  S
H53          O54   0.964       .  S
C55          C56   1.545       .  S
C55          C61   1.531       .  S
C55          C59   1.540       .  S
C55        C2341   1.538       .  S
C56          H63   1.081       .  S
C56          C57   1.364       .  D
C57          C58   1.536       .  S
C57        C2472   1.469       .  S
C58          C62   1.537       .  S
C58          C60   1.549       .  S
C58          H64   1.106       .  S
C59          H65   1.085       .  S
C59          C60   1.376       .  D
C60        C2361   1.508       .  S
C61          H66   1.087       .  S
C61          C62   1.356       .  D
C62        C2392   1.476       .  S
O67        Zr103   2.436       .  S
O67          C78   1.292       .  A
O68        Zr102   2.438       .  S
O68          C79   1.293       .  A
O69         Zr75   2.437       .  S
O69          C80   1.292       .  A
O70         Zr75   2.448   1_565  S
O70          C81   1.293       .  A
O71        Zr105   2.446       .  S
O71          C81   1.294       .  A
O72        Zr104   2.424       .  S
O72          C80   1.289       .  A
O73         Zr75   2.437   1_565  S
O73          C79   1.291       .  A
O74         Zr75   2.445       .  S
O74          C78   1.294       .  A
Zr75         O76   2.345   1_545  S
Zr75         O77   2.342       .  S
Zr75         O85   2.331       .  S
Zr75         O83   2.335       .  S
O76        Zr102   2.346       .  S
O76        Zr105   2.338       .  S
O77        Zr103   2.340       .  S
O77        Zr104   2.340       .  S
C78        C2372   1.480       .  S
C79        C2161   1.487       .  S
C80        C2201   1.472       .  S
C81        C2192   1.499       .  S
H82          O83   0.965       .  S
O83        Zr102   2.335   1_545  S
O83        Zr104   2.335       .  S
H84          O85   0.965       .  S
O85        Zr103   2.346       .  S
O85        Zr105   2.344   1_545  S
O86        Zr102   2.440       .  S
O86         C109   1.293       .  A
O87        Zr103   2.446       .  S
O87         C110   1.294       .  A
O88        Zr104   2.449       .  S
O88         C111   1.293       .  A
O89        Zr105   2.450       .  S
O89         C112   1.294       .  A
O90        Zr105   2.440       .  S
O90         C113   1.292   1_565  A
O91        Zr104   2.428       .  S
O91         C114   1.289       .  A
O92        Zr106   2.454       .  S
O92         C115   1.296       .  A
O93        Zr106   2.444   1_565  S
O93         C116   1.292       .  A
O94        Zr104   2.435       .  S
O94         C115   1.291       .  A
O95        Zr105   2.425       .  S
O95         C116   1.291       .  A
O96        Zr102   2.446       .  S
O96         C111   1.294   1_565  A
O97        Zr103   2.447       .  S
O97         C114   1.294       .  A
O98        Zr103   2.451       .  S
O98         C113   1.295       .  A
O99        Zr102   2.437       .  S
O99         C112   1.292       .  A
O100       Zr106   2.435   1_565  S
O100        C109   1.292       .  A
O101       Zr106   2.448       .  S
O101        C110   1.294       .  A
Zr102       O108   2.344   1_565  S
Zr102       O120   2.340       .  S
Zr103       O107   2.338       .  S
Zr103       O118   2.344       .  S
Zr104       O108   2.336       .  S
Zr104       O118   2.347       .  S
Zr105       O107   2.344   1_565  S
Zr105       O120   2.343       .  S
Zr106       O107   2.345       .  S
Zr106       O108   2.350       .  S
Zr106       O120   2.340   1_545  S
Zr106       O118   2.328       .  S
C109       C2312   1.477       .  S
C110       C2272   1.485       .  S
C111       C2121   1.487       .  S
C112       C2241   1.480       .  S
C113       C2141   1.474       .  S
C114       C2221   1.465       .  S
C115       C2332   1.486       .  S
C116       C2292   1.486       .  S
H117        O118   0.964       .  S
H119        O120   0.965       .  S
C121        C122   1.531   1_554  S
C121        C127   1.539       .  S
C121        C125   1.536       .  S
C121       C2081   1.529       .  S
C122        H129   1.086       .  S
C122        C123   1.366       .  D
C123        C124   1.547   1_556  S
C123       C2592   1.494       .  S
C124        C128   1.542       .  S
C124        C126   1.541       .  S
C124        H130   1.111       .  S
C125        H131   1.085       .  S
C125        C126   1.364       .  D
C126       C2301   1.470       .  S
C127        H132   1.085       .  S
C127        C128   1.360       .  D
C128       C2112   1.483       .  S
C133        C134   1.545   1_556  S
C133        C139   1.540       .  S
C133        C137   1.539       .  S
C133       C2041   1.542       .  S
C134        H141   1.086       .  S
C134        C135   1.371       .  D
C135        C136   1.535   1_554  S
C135       C2281   1.491       .  S
C136        C140   1.536       .  S
C136        C138   1.541       .  S
C136        H142   1.110       .  S
C137        H143   1.085       .  S
C137        C138   1.368       .  D
C138       C2612   1.479       .  S
C139        H144   1.081       .  S
C139        C140   1.357       .  D
C140       C2061   1.481   1_556  S
C145        C146   1.543       .  S
C145        C151   1.532       .  S
C145        C149   1.548       .  S
C145       C2001   1.544       .  S
C146        H153   1.086       .  S
C146        C147   1.373       .  D
C147        C148   1.545       .  S
C147       C2181   1.504       .  S
C148        C152   1.542       .  S
C148        C150   1.538       .  S
C148        H154   1.108       .  S
C149        H155   1.080       .  S
C149        C150   1.370       .  D
C150       C2492   1.488       .  S
C151        H156   1.087       .  S
C151        C152   1.358       .  D
C152       C2032   1.478       .  S
C157        C158   1.539   1_556  S
C157        C163   1.542       .  S
C157        C161   1.540       .  S
C157       C1961   1.539       .  S
C158        H165   1.086       .  S
C158        C159   1.365       .  D
C159        C160   1.537       .  S
C159       C2321   1.481       .  S
C160        C164   1.539   1_554  S
C160        C162   1.545   1_554  S
C160        H166   1.107       .  S
C161        H167   1.086       .  S
C161        C162   1.375       .  D
C162       C2561   1.496       .  S
C163        H168   1.080       .  S
C163        C164   1.353       .  D
C164       C1992   1.476       .  S
C169        C170   1.541       .  S
C169        C175   1.542       .  S
C169        C173   1.539   1_556  S
C169       C1921   1.545       .  S
C170        H177   1.086       .  S
C170        C171   1.368       .  D
C171        C172   1.536       .  S
C171       C2621   1.477       .  S
C172        C176   1.534       .  S
C172        C174   1.549   1_556  S
C172        H178   1.108       .  S
C173        H179   1.085       .  S
C173        C174   1.376       .  D
C174       C2261   1.504       .  S
C175        H180   1.078       .  S
C175        C176   1.356       .  D
C176       C1941   1.484       .  S
C181        C182   1.547       .  S
C181        C187   1.535       .  S
C181        C185   1.540       .  S
C181       C1881   1.531       .  S
C182        H189   1.080       .  S
C182        C183   1.362       .  D
C183        C184   1.531       .  S
C183       C2212   1.467       .  S
C184        C188   1.532       .  S
C184        C186   1.536       .  S
C184        H190   1.111       .  S
C185        H191   1.086       .  S
C185        C186   1.364       .  D
C186       C2441   1.474       .  S
C187        H192   1.087       .  S
C187        C188   1.362       .  D
C188       C1901   1.473       .  S
C193        C194   1.549       .  S
C193        C199   1.530       .  S
C193        C197   1.535       .  S
C193       C1841   1.533       .  S
C194        H201   1.082       .  S
C194        C195   1.367       .  D
C195        C196   1.543       .  S
C195       C2501   1.485       .  S
C196        C200   1.545       .  S
C196        C198   1.540       .  S
C196        H202   1.110       .  S
C197        H203   1.086       .  S
C197        C198   1.365       .  D
C198       C2172   1.487       .  S
C199        H204   1.087       .  S
C199        C200   1.362       .  D
C200       C1872   1.487       .  S
O205       Zr241   2.445       .  S
O205        C216   1.293       .  A
O206       Zr240   2.441       .  S
O206        C217   1.292   1_455  A
O207       Zr213   2.432       .  S
O207        C218   1.291       .  A
O208       Zr213   2.430       .  S
O208        C219   1.290       .  A
O209       Zr243   2.459       .  S
O209        C219   1.296       .  A
O210       Zr242   2.443       .  S
O210        C218   1.293       .  A
O211       Zr213   2.445       .  S
O211        C217   1.292       .  A
O212       Zr213   2.452       .  S
O212        C216   1.295       .  A
Zr213       O214   2.340       .  S
Zr213       O215   2.339       .  S
Zr213       O223   2.343       .  S
Zr213       O221   2.345       .  S
O214       Zr240   2.337   1_655  S
O214       Zr243   2.341       .  S
O215       Zr241   2.336       .  S
O215       Zr242   2.346       .  S
C216       C2012   1.492       .  S
C217       C1672   1.468       .  S
C218       C1721   1.474       .  S
C219       C1801   1.476       .  S
H220        O221   0.965       .  S
O221       Zr240   2.345   1_655  S
O221       Zr242   2.338       .  S
H222        O223   0.965       .  S
O223       Zr241   2.351       .  S
O223       Zr243   2.338       .  S
O224       Zr240   2.438       .  S
O224        C247   1.292       .  A
O225       Zr241   2.452       .  S
O225        C248   1.295       .  A
O226       Zr242   2.448   1_455  S
O226        C249   1.295       .  A
O227       Zr243   2.464   1_455  S
O227        C250   1.297       .  A
O228       Zr243   2.445       .  S
O228        C251   1.295       .  A
O229       Zr242   2.449       .  S
O229        C252   1.295       .  A
O230       Zr244   2.442       .  S
O230        C253   1.292       .  A
O231       Zr244   2.448       .  S
O231        C254   1.293       .  A
O232       Zr242   2.451   1_455  S
O232        C253   1.295       .  A
O233       Zr243   2.455   1_455  S
O233        C254   1.295       .  A
O234       Zr240   2.428       .  S
O234        C249   1.289       .  A
O235       Zr241   2.456       .  S
O235        C252   1.295       .  A
O236       Zr241   2.436       .  S
O236        C251   1.291       .  A
O237       Zr240   2.435       .  S
O237        C250   1.291       .  A
O238       Zr244   2.424       .  S
O238        C247   1.290       .  A
O239       Zr244   2.413       .  S
O239        C248   1.287   1_455  A
Zr240       O246   2.338       .  S
Zr240       O258   2.342       .  S
Zr241       O245   2.340       .  S
Zr241       O256   2.345       .  S
Zr242       O246   2.347   1_655  S
Zr242       O256   2.339       .  S
Zr243       O245   2.348       .  S
Zr243       O258   2.335   1_655  S
Zr244       O245   2.332   1_455  S
Zr244       O246   2.336       .  S
Zr244       O258   2.344       .  S
Zr244       O256   2.350   1_455  S
C247       C1852   1.477       .  S
C248       C1652   1.477       .  S
C249       C1701   1.487       .  S
C250       C1821   1.483       .  S
C251       C1781   1.490       .  S
C252       C1741   1.498       .  S
C253       C1681   1.489       .  S
C254       C1761   1.479       .  S
H255        O256   0.966       .  S
H257        O258   0.965       .  S
O259       Zr295   2.432       .  S
O259        C270   1.291       .  A
O260       Zr294   2.438       .  S
O260        C271   1.292   1_455  A
O261       Zr267   2.460       .  S
O261        C272   1.295       .  A
O262       Zr267   2.453       .  S
O262        C273   1.296       .  A
O263       Zr297   2.430       .  S
O263        C273   1.289       .  A
O264       Zr296   2.458       .  S
O264        C272   1.297       .  A
O265       Zr267   2.436       .  S
O265        C271   1.291       .  A
O266       Zr267   2.441       .  S
O266        C270   1.292       .  A
Zr267       O268   2.344       .  S
Zr267       O269   2.340       .  S
Zr267       O277   2.342       .  S
Zr267       O275   2.342       .  S
O268       Zr294   2.333   1_655  S
O268       Zr297   2.336       .  S
O269       Zr295   2.334       .  S
O269       Zr296   2.331       .  S
C270       C2352   1.476       .  S
C271       C1472   1.471       .  S
C272       C1581   1.504       .  S
C273       C1501   1.496       .  S
H274        O275   0.966       .  S
O275       Zr294   2.345   1_655  S
O275       Zr296   2.354       .  S
H276        O277   0.965       .  S
O277       Zr295   2.338       .  S
O277       Zr297   2.353       .  S
O278       Zr294   2.425       .  S
O278        C301   1.289       .  A
O279       Zr295   2.433       .  S
O279        C302   1.291       .  A
O280       Zr296   2.417   1_455  S
O280        C303   1.290       .  A
O281       Zr297   2.457   1_455  S
O281        C304   1.295       .  A
O282       Zr297   2.451       .  S
O282        C305   1.296       .  A
O283       Zr296   2.424       .  S
O283        C306   1.290       .  A
O284       Zr298   2.453       .  S
O284        C307   1.294       .  A
O285       Zr298   2.448       .  S
O285        C308   1.294       .  A
O286       Zr296   2.454   1_455  S
O286        C307   1.294       .  A
O287       Zr297   2.441   1_455  S
O287        C308   1.292       .  A
O288       Zr294   2.431       .  S
O288        C303   1.289       .  A
O289       Zr295   2.450       .  S
O289        C306   1.293       .  A
O290       Zr295   2.421       .  S
O290        C305   1.287       .  A
O291       Zr294   2.450       .  S
O291        C304   1.293       .  A
O292       Zr298   2.439       .  S
O292        C301   1.292       .  A
O293       Zr298   2.441       .  S
O293        C302   1.293   1_455  A
Zr294       O300   2.344       .  S
Zr294       O312   2.337       .  S
Zr295       O299   2.339       .  S
Zr295       O310   2.329       .  S
Zr296       O300   2.339   1_655  S
Zr296       O310   2.346       .  S
Zr297       O299   2.334       .  S
Zr297       O312   2.346   1_655  S
Zr298       O299   2.337   1_455  S
Zr298       O300   2.340       .  S
Zr298       O312   2.345       .  S
Zr298       O310   2.342   1_455  S
C301       C1892   1.463       .  S
C302       C1441   1.473       .  S
C303       C1561   1.482       .  S
C304       C1521   1.484       .  S
C305       C1481   1.488       .  S
C306       C1612   1.491       .  S
C307       C1632   1.478       .  S
C308       C1541   1.480       .  S
H309        O310   0.965       .  S
H311        O312   0.965       .  S
C313        C314   1.547       .  S
C313        C319   1.529       .  S
C313        C317   1.540       .  S
C313       C1401   1.535       .  S
C314        H321   1.081       .  S
C314        C315   1.370       .  D
C315        C316   1.543       .  S
C315       C1512   1.486       .  S
C316        C320   1.533       .  S
C316        C318   1.543       .  S
C316        H322   1.104       .  S
C317        H323   1.085       .  S
C317        C318   1.372       .  D
C318       C1732   1.504       .  S
C319        H324   1.087       .  S
C319        C320   1.355       .  D
C320       C1421   1.471       .  S
C325        C326   1.537       .  S
C325        C331   1.538       .  S
C325        C329   1.543       .  S
C325       C1361   1.540       .  S
C326        H333   1.086       .  S
C326        C327   1.368       .  D
C327        C328   1.535       .  S
C327       C1712   1.481       .  S
C328        C332   1.537       .  S
C328        C330   1.545       .  S
C328        H334   1.111       .  S
C329        H335   1.084       .  S
C329        C330   1.372       .  D
C330       C1532   1.493       .  S
C331        H336   1.083       .  S
C331        C332   1.357       .  D
C332       C1381   1.478       .  S
C337        C338   1.544   1_545  S
C337        C343   1.525       .  S
C337        C341   1.550       .  S
C337       C2152   1.538       .  S
C338        H345   1.084       .  S
C338        C339   1.371       .  D
C339        C340   1.539   1_565  S
C339       C1792   1.489       .  S
C340        C344   1.537       .  S
C340        C342   1.538       .  S
C340        H346   1.110       .  S
C341        H347   1.083       .  S
C341        C342   1.371       .  D
C342       C1601   1.490       .  S
C343        H348   1.087       .  S
C343        C344   1.356       .  D
C344       C1341   1.469       .  S
C349        C350   1.548       .  S
C349        C355   1.530       .  S
C349        C353   1.544   1_545  S
C349       C2432   1.552       .  S
C350        H357   1.080       .  S
C350        C351   1.365       .  D
C351        C352   1.540   1_545  S
C351       C1592   1.492       .  S
C352        C356   1.549       .  S
C352        C354   1.543       .  S
C352        H358   1.107       .  S
C353        H359   1.086       .  S
C353        C354   1.374       .  D
C354       C1812   1.490       .  S
C355        H360   1.085       .  S
C355        C356   1.369   1_545  D
C356       C1321   1.508       .  S
C361        C362   1.546       .  S
C361        C367   1.529       .  S
C361        C365   1.544       .  S
C361       C1281   1.539       .  S
C362        H369   1.082       .  S
C362        C363   1.364       .  D
C363        C364   1.537       .  S
C363       C1752   1.486       .  S
C364        C368   1.545       .  S
C364        C366   1.541       .  S
C364        H370   1.110       .  S
C365        H371   1.086       .  S
C365        C366   1.372       .  D
C366       C1492   1.489       .  S
C367        H372   1.087       .  S
C367        C368   1.361       .  D
C368       C1312   1.487       .  S
C373        C374   1.549       .  S
C373        C379   1.535       .  S
C373        C377   1.543       .  S
C373       C1241   1.536       .  S
C374        H381   1.080       .  S
C374        C375   1.362       .  D
C375        C376   1.528       .  S
C375       C1552   1.470       .  S
C376        C380   1.533       .  S
C376        C378   1.537       .  S
C376        H382   1.111       .  S
C377        H383   1.086       .  S
C377        C378   1.369       .  D
C378       C1692   1.486       .  S
C379        H384   1.087       .  S
C379        C380   1.363       .  D
C380       C1272   1.473       .  S
C385        C386   1.555       .  S
C385        C391   1.532       .  S
C385        C389   1.533   1_545  S
C385       C2132   1.547       .  S
C386        H393   1.081       .  S
C386        C387   1.380       .  D
C387        C388   1.546       .  S
C387       C1621   1.513       .  S
C388        C392   1.546       .  S
C388        C390   1.554   1_545  S
C388        H394   1.104       .  S
C389        H395   1.087       .  S
C389        C390   1.361       .  D
C390       C1772   1.487       .  S
C391        H396   1.087       .  S
C391        C392   1.364       .  D
C392       C1221   1.496       .  S
C397        C398   1.538   1_545  S
C397        C403   1.530       .  S
C397        C401   1.547       .  S
C397       C2401   1.535       .  S
C398        H405   1.086       .  S
C398        C399   1.366       .  D
C399        C400   1.541   1_565  S
C399       C1832   1.485       .  S
C400        C404   1.538       .  S
C400        C402   1.535       .  S
C400        H406   1.110       .  S
C401        H407   1.079       .  S
C401        C402   1.367       .  D
C402       C1572   1.484       .  S
C403        H408   1.087       .  S
C403        C404   1.361       .  D
C404       C1212   1.475       .  S
O409       Zr445   2.441       .  S
O409        C420   1.292       .  A
O410       Zr444   2.418       .  S
O410        C421   1.288       .  A
O411       Zr417   2.432       .  S
O411        C422   1.289       .  A
O412       Zr417   2.438       .  S
O412        C423   1.292       .  A
O413       Zr447   2.434   1_554  S
O413        C423   1.292       .  A
O414       Zr446   2.457   1_554  S
O414        C422   1.297       .  A
O415       Zr417   2.442       .  S
O415        C421   1.293       .  A
O416       Zr417   2.443       .  S
O416        C420   1.293   1_554  A
Zr417       O418   2.333       .  S
Zr417       O419   2.332   1_554  S
Zr417       O427   2.341   1_554  S
Zr417       O425   2.341       .  S
O418       Zr444   2.331       .  S
O418       Zr447   2.328   1_554  S
O419       Zr445   2.340       .  S
O419       Zr446   2.338       .  S
C420       C2052   1.479       .  S
C421       C1292   1.467       .  S
C422       C1061   1.499       .  S
C423       C1181   1.475       .  S
H424        O425   0.966       .  S
O425       Zr444   2.341       .  S
O425       Zr446   2.349   1_554  S
H426        O427   0.965       .  S
O427       Zr445   2.340       .  S
O427       Zr447   2.349       .  S
O428       Zr444   2.425       .  S
O428        C451   1.288   1_554  A
O429       Zr445   2.443       .  S
O429        C452   1.294       .  A
O430       Zr446   2.450   1_554  S
O430        C453   1.294       .  A
O431       Zr447   2.445   1_554  S
O431        C454   1.293       .  A
O432       Zr447   2.427       .  S
O432        C455   1.288       .  A
O433       Zr446   2.427       .  S
O433        C456   1.289       .  A
O434       Zr448   2.425       .  S
O434        C457   1.290       .  A
O435       Zr448   2.433       .  S
O435        C458   1.291       .  A
O436       Zr446   2.459       .  S
O436        C457   1.296       .  A
O437       Zr447   2.438       .  S
O437        C458   1.292       .  A
O438       Zr444   2.425       .  S
O438        C453   1.291       .  A
O439       Zr445   2.444       .  S
O439        C456   1.295       .  A
O440       Zr445   2.456       .  S
O440        C455   1.297       .  A
O441       Zr444   2.436       .  S
O441        C454   1.292       .  A
O442       Zr448   2.436       .  S
O442        C451   1.292       .  A
O443       Zr448   2.432       .  S
O443        C452   1.290       .  A
Zr444       O450   2.338   1_554  S
Zr444       O462   2.329   1_554  S
Zr445       O449   2.341       .  S
Zr445       O460   2.342       .  S
Zr446       O450   2.336       .  S
Zr446       O460   2.352       .  S
Zr447       O449   2.340       .  S
Zr447       O462   2.341       .  S
Zr448       O449   2.340       .  S
Zr448       O450   2.339       .  S
Zr448       O462   2.335       .  S
Zr448       O460   2.337       .  S
C451       C1932   1.481       .  S
C452       C1412   1.482       .  S
C453       C1041   1.484       .  S
C454       C1132   1.484       .  S
C455       C1161   1.495       .  S
C456       C1081   1.486       .  S
C457       C1101   1.487       .  S
C458       C1141   1.465       .  S
H459        O460   0.965       .  S
H461        O462   0.965       .  S
O463       Zr499   2.431       .  S
O463        C474   1.292   1_556  A
O464       Zr498   2.434       .  S
O464        C475   1.291       .  A
O465       Zr471   2.430       .  S
O465        C476   1.290       .  A
O466       Zr471   2.435       .  S
O466        C477   1.291       .  A
O467       Zr501   2.456   1_554  S
O467        C477   1.296       .  A
O468       Zr500   2.420       .  S
O468        C476   1.290       .  A
O469       Zr471   2.429       .  S
O469        C475   1.290       .  A
O470       Zr471   2.428       .  S
O470        C474   1.290       .  A
Zr471       O472   2.329       .  S
Zr471       O473   2.337       .  S
Zr471       O481   2.341       .  S
Zr471       O479   2.341       .  S
O472       Zr498   2.334       .  S
O472       Zr501   2.336   1_554  S
O473       Zr499   2.336   1_554  S
O473       Zr500   2.338       .  S
C474       C2092   1.473       .  S
C475       C1252   1.463       .  S
C476        C932   1.475       .  S
C477       C1012   1.489       .  S
H478        O479   0.953       .  S
O479       Zr498   2.342       .  S
O479       Zr500   2.337       .  S
H480        O481   0.953       .  S
O481       Zr499   2.349   1_554  S
O481       Zr501   2.330   1_554  S
O482       Zr498   2.425       .  S
O482        C505   1.291   1_554  A
O483       Zr499   2.450       .  S
O483        C506   1.295       .  A
O484       Zr500   2.442       .  S
O484        C507   1.292       .  A
O485       Zr501   2.433   1_554  S
O485        C508   1.290       .  A
O486       Zr501   2.432       .  S
O486        C509   1.290       .  A
O487       Zr500   2.456   1_556  S
O487        C510   1.296       .  A
O488       Zr502   2.441       .  S
O488        C511   1.292       .  A
O489       Zr502   2.424       .  S
O489        C512   1.289       .  A
O490       Zr500   2.427   1_556  S
O490        C511   1.290       .  A
O491       Zr501   2.442       .  S
O491        C512   1.292       .  A
O492       Zr498   2.445       .  S
O492        C507   1.293       .  A
O493       Zr499   2.444       .  S
O493        C510   1.293       .  A
O494       Zr499   2.434       .  S
O494        C509   1.292       .  A
O495       Zr498   2.445       .  S
O495        C508   1.293       .  A
O496       Zr502   2.440       .  S
O496        C505   1.292       .  A
O497       Zr502   2.437       .  S
O497        C506   1.291       .  A
Zr498       O504   2.343       .  S
Zr498       O516   2.349   1_554  S
Zr499       O503   2.333       .  S
Zr499       O514   2.340       .  S
Zr500       O504   2.340       .  S
Zr500       O514   2.330   1_554  S
Zr501       O503   2.343       .  S
Zr501       O516   2.341       .  S
Zr502       O503   2.335       .  S
Zr502       O504   2.334   1_556  S
Zr502       O516   2.354       .  S
Zr502       O514   2.341       .  S
C505       C1972   1.478       .  S
C506       C1372   1.488       .  S
C507        C912   1.473       .  S
C508       C1021   1.468       .  S
C509        C981   1.479       .  S
C510        C952   1.487       .  S
C511        C892   1.473       .  S
C512        C972   1.462       .  S
H513        O514   0.953       .  S
H515        O516   0.962       .  S
C517        C518   1.550       .  S
C517        C523   1.525       .  S
C517        C521   1.544   1_455  S
C517       C1661   1.542       .  S
C518        H525   1.085       .  S
C518        C519   1.376       .  D
C519        C520   1.544       .  S
C519        C941   1.503       .  S
C520        C524   1.543       .  S
C520        C522   1.544   1_455  S
C520        H526   1.110       .  S
C521        H527   1.078       .  S
C521        C522   1.364       .  D
C522       C1172   1.490       .  S
C523        H528   1.087       .  S
C523        C524   1.356       .  D
C524        C861   1.477       .  S
C529        C530   1.543       .  S
C529        C535   1.537       .  S
C529        C533   1.540   1_655  S
C529       C1461   1.538       .  S
C530        H537   1.082       .  S
C530        C531   1.367       .  D
C531        C532   1.542       .  S
C531       C1152   1.486       .  S
C532        C536   1.536       .  S
C532        C534   1.536   1_655  S
C532        H538   1.110       .  S
C533        H539   1.086       .  S
C533        C534   1.366       .  D
C534        C881   1.480       .  S
C535        H540   1.086       .  S
C535        C536   1.364       .  D
C536        C841   1.488       .  S
C541        C542   1.534       .  S
C541        C547   1.545       .  S
C541        C545   1.543       .  S
C541       C2541   1.535       .  S
C542        H549   1.086       .  S
C542        C543   1.362       .  D
C543        C544   1.535       .  S
C543        C992   1.472       .  S
C544        C548   1.533       .  S
C544        C546   1.536       .  S
C544        H550   1.110       .  S
C545        H551   1.086       .  S
C545        C546   1.368       .  D
C546       C1092   1.483       .  S
C547        H552   1.080       .  S
C547        C548   1.363       .  D
C548        C821   1.483       .  S
C553        C554   1.535       .  S
C553        C559   1.527       .  S
C553        C557   1.547       .  S
C553       C2252   1.537       .  S
C554        H561   1.086       .  S
C554        C555   1.366       .  D
C555        C556   1.546       .  S
C555       C1072   1.487       .  S
C556        C560   1.546       .  S
C556        C558   1.543       .  S
C556        H562   1.111       .  S
C557        H563   1.081       .  S
C557        C558   1.368       .  D
C558       C1001   1.486       .  S
C559        H564   1.086       .  S
C559        C560   1.362       .  D
C560        C801   1.491       .  S
C565        C566   1.549   1_655  S
C565        C571   1.532       .  S
C565        C569   1.534       .  S
C565       C1452   1.539       .  S
C566        H573   1.080       .  S
C566        C567   1.374       .  D
C567        C568   1.548   1_455  S
C567        C901   1.502       .  S
C568        C572   1.543       .  S
C568        C570   1.541       .  S
C568        H574   1.109       .  S
C569        H575   1.086       .  S
C569        C570   1.364       .  D
C570       C1121   1.480       .  S
C571        H576   1.087       .  S
C571        C572   1.359       .  D
C572        C792   1.484       .  S
C577        C578   1.537       .  S
C577        C583   1.545       .  S
C577        C581   1.539   1_655  S
C577       C1641   1.536       .  S
C578        H585   1.086       .  S
C578        C579   1.363       .  D
C579        C580   1.531   1_655  S
C579       C1192   1.470       .  S
C580        C584   1.532   1_455  S
C580        C582   1.536       .  S
C580        H586   1.111       .  S
C581        H587   1.086       .  S
C581        C582   1.367       .  D
C582        C921   1.476       .  S
C583        H588   1.079       .  S
C583        C584   1.362       .  D
C584        C761   1.478       .  S
C589        C590   1.538       .  S
C589        C595   1.534       .  S
C589        C593   1.550       .  S
C589       C2532   1.542       .  S
C590        H597   1.086       .  S
C590        C591   1.369       .  D
C591        C592   1.544       .  S
C591       C1112   1.490       .  S
C592        C596   1.534       .  S
C592        C594   1.532       .  S
C592        H598   1.109       .  S
C593        H599   1.081       .  S
C593        C594   1.370       .  D
C594        C961   1.481       .  S
C595        H600   1.087       .  S
C595        C596   1.361       .  D
C596        C741   1.476       .  S
C601        C602   1.543       .  S
C601        C607   1.531       .  S
C601        C605   1.543       .  S
C601       C2232   1.534       .  S
C602        H609   1.085       .  S
C602        C603   1.373       .  D
C603        C604   1.539       .  S
C603       C1032   1.488       .  S
C604        C608   1.536       .  S
C604        C606   1.539       .  S
C604        H610   1.109       .  S
C605        H611   1.083       .  S
C605        C606   1.363       .  D
C606       C1052   1.475       .  S
C607        H612   1.087       .  S
C607        C608   1.358       .  D
C608        C721   1.476       .  S
O613       Zr649   2.453       .  S
O613        C624   1.293       .  A
O614       Zr648   2.455       .  S
O614        C625   1.295       .  A
O615       Zr621   2.439       .  S
O615        C626   1.292       .  A
O616       Zr621   2.472       .  S
O616        C627   1.298       .  A
O617       Zr651   2.404       .  S
O617        C627   1.286       .  A
O618       Zr650   2.435       .  S
O618        C626   1.291       .  A
O619       Zr621   2.430       .  S
O619        C625   1.290       .  A
O620       Zr621   2.429       .  S
O620        C624   1.290       .  A
Zr621       O622   2.336       .  S
Zr621       O623   2.346       .  S
Zr621       O631   2.336       .  S
Zr621       O629   2.345       .  S
O622       Zr648   2.340       .  S
O622       Zr651   2.330       .  S
O623       Zr649   2.340       .  S
O623       Zr650   2.339       .  S
C624       C2381   1.469       .  S
C625        C732   1.472       .  S
C626       C1912   1.479       .  S
C627       C1301   1.480       .  S
H628        O629   0.965       .  S
O629       Zr648   2.342       .  S
O629       Zr650   2.340       .  S
H630        O631   0.965       .  S
O631       Zr649   2.344       .  S
O631       Zr651   2.356       .  S
O632       Zr648   2.489       .  S
O632        C655   1.301       .  A
O633       Zr649   2.449       .  S
O633        C656   1.294       .  A
O634       Zr650   2.441       .  S
O634        C657   1.291       .  A
O635       Zr651   2.488       .  S
O635        C658   1.301       .  A
O636       Zr651   2.443       .  S
O636        C659   1.292       .  A
O637       Zr650   2.464       .  S
O637        C660   1.296       .  A
O638       Zr652   2.455       .  S
O638        C661   1.294       .  A
O639       Zr652   2.450       .  S
O639        C662   1.294       .  A
O640       Zr650   2.421       .  S
O640        C661   1.288       .  A
O641       Zr651   2.437       .  S
O641        C662   1.293       .  A
O642       Zr648   2.419       .  S
O642        C657   1.291       .  A
O643       Zr649   2.423       .  S
O643        C660   1.290       .  A
O644       Zr649   2.429       .  S
O644        C659   1.291       .  A
O645       Zr648   2.389       .  S
O645        C658   1.279       .  A
O646       Zr652   2.393       .  S
O646        C655   1.283       .  A
O647       Zr652   2.414       .  S
O647        C656   1.285       .  A
Zr648       O654   2.320       .  S
Zr648       O666   2.336       .  S
Zr649       O653   2.344       .  S
Zr649       O664   2.340       .  S
Zr650       O654   2.344       .  S
Zr650       O664   2.338       .  S
Zr651       O653   2.349       .  S
Zr651       O666   2.336       .  S
Zr652       O653   2.334       .  S
Zr652       O654   2.334       .  S
Zr652       O666   2.341       .  S
Zr652       O664   2.334       .  S
C655       C1861   1.484       .  S
C656        C832   1.486       .  S
C657       C1261   1.473       .  S
C658        C812   1.498       .  S
C659       C1432   1.465       .  S
C660        C752   1.482       .  S
C661       C1392   1.466       .  S
C662       C2021   1.479       .  S
H663        O664   0.965       .  S
H665        O666   0.966       .  S
O667       Zr703   2.493       .  S
O667        C678   1.300       .  A
O668       Zr702   2.459   1_455  S
O668        C679   1.295       .  A
O669       Zr675   2.464       .  S
O669        C680   1.296       .  A
O670       Zr675   2.452   1_545  S
O670        C681   1.294       .  A
O671       Zr705   2.427   1_556  S
O671        C681   1.290       .  A
O672       Zr704   2.405       .  S
O672        C680   1.286   1_655  A
O673       Zr675   2.397   1_545  S
O673        C679   1.287       .  A
O674       Zr675   2.395       .  S
O674        C678   1.285   1_556  A
Zr675       O676   2.341   1_565  S
Zr675       O677   2.322       .  S
Zr675       O685   2.334   1_566  S
Zr675       O683   2.332   1_455  S
O676       Zr702   2.338   1_455  S
O676       Zr705   2.345   1_556  S
O677       Zr703   2.327   1_556  S
O677       Zr704   2.347   1_455  S
C678       C2101   1.496       .  S
C679       C1201   1.483       .  S
C680        C872   1.470       .  S
C681       C1981   1.467       .  S
H682        O683   0.965       .  S
O683       Zr702   2.336   1_565  S
O683       Zr704   2.328       .  S
H684        O685   0.965       .  S
O685       Zr703   2.334   1_545  S
O685       Zr705   2.337       .  S
O686       Zr702   2.480       .  S
O686        C709   1.299       .  A
O687       Zr703   2.447   1_655  S
O687        C710   1.293       .  A
O688       Zr704   2.503       .  S
O688        C711   1.302       .  A
O689       Zr705   2.471   1_556  S
O689        C712   1.296       .  A
O690       Zr705   2.477       .  S
O690        C713   1.299       .  A
O691       Zr704   2.443   1_554  S
O691        C714   1.293       .  A
O692       Zr706   2.455       .  S
O692        C715   1.295   1_545  A
O693       Zr706   2.481       .  S
O693        C716   1.299       .  A
O694       Zr704   2.419       .  S
O694        C715   1.289   1_556  A
O695       Zr705   2.415   1_655  S
O695        C716   1.288       .  A
O696       Zr702   2.383       .  S
O696        C711   1.279   1_545  A
O697       Zr703   2.434   1_655  S
O697        C714   1.292       .  A
O698       Zr703   2.406   1_545  S
O698        C713   1.287       .  A
O699       Zr702   2.393       .  S
O699        C712   1.286   1_655  A
O700       Zr706   2.413       .  S
O700        C709   1.288   1_554  A
O701       Zr706   2.428       .  S
O701        C710   1.292   1_545  A
Zr702       O708   2.326       .  S
Zr702       O720   2.332       .  S
Zr703       O707   2.354   1_465  S
Zr703       O718   2.361   1_455  S
Zr704       O708   2.329   1_565  S
Zr704       O718   2.360   1_556  S
Zr705       O707   2.346   1_455  S
Zr705       O720   2.339   1_454  S
Zr706       O707   2.336       .  S
Zr706       O708   2.345   1_554  S
Zr706       O720   2.337   1_554  S
Zr706       O718   2.355   1_545  S
C709       C1952   1.481       .  S
C710       C1352   1.474       .  S
C711       C1332   1.497       .  S
C712        C852   1.494       .  S
C713       C1232   1.481       .  S
C714        C772   1.468       .  S
C715       C2072   1.479       .  S
C716        C781   1.479       .  S
H717        O718   0.966       .  S
H719        O720   0.965       .  S
C721        C722   1.409       .  A
C721        C726   1.401       .  A
C722        C723   1.399       .  A
C722       Br738   1.912       .  S
C723        C724   1.401       .  A
C723        H727   1.083       .  S
C724        C728   1.478       .  S
C724        C725   1.409       .  A
C725        C726   1.399       .  A
C725       Br737   1.918       .  S
C726        H729   1.084       .  S
C728        C730   1.404       .  A
C728        C734   1.407       .  A
C730        C731   1.401       .  A
C730        H735   1.084       .  S
C731        C732   1.409       .  A
C731       Br739   1.920       .  S
C732        C733   1.402       .  A
C733        C734   1.398       .  A
C733        H736   1.082       .  S
C734       Br740   1.918       .  S
C741        C742   1.406       .  A
C741        C746   1.405       .  A
C742        C743   1.394       .  A
C742       Br758   1.916       .  S
C743        C744   1.400       .  A
C743        H747   1.084       .  S
C744        C748   1.477       .  S
C744        C745   1.409       .  A
C745        C746   1.405       .  A
C745       Br757   1.917       .  S
C746        H749   1.084       .  S
C748        C750   1.406       .  A
C748        C754   1.404       .  A
C750        C751   1.406       .  A
C750        H755   1.083       .  S
C751        C752   1.411       .  A
C751       Br759   1.918       .  S
C752        C753   1.407       .  A
C753        C754   1.394       .  A
C753        H756   1.084       .  S
C754       Br760   1.920       .  S
C761        C762   1.409   1_655  A
C761        C766   1.404       .  A
C762        C763   1.391       .  A
C762       Br778   1.923       .  S
C763        C764   1.403   1_455  A
C763        H767   1.084       .  S
C764        C768   1.480       .  S
C764        C765   1.410       .  A
C765        C766   1.402       .  A
C765       Br777   1.918       .  S
C766        H769   1.082       .  S
C768        C770   1.402   1_655  A
C768        C774   1.413       .  A
C770        C771   1.393       .  A
C770        H775   1.084       .  S
C771        C772   1.408   1_455  A
C771       Br779   1.921       .  S
C772        C773   1.401       .  A
C773        C774   1.402       .  A
C773        H776   1.084       .  S
C774       Br780   1.919       .  S
C781        C782   1.408       .  A
C781        C786   1.406       .  A
C782        C783   1.408       .  A
C782       Br798   1.918       .  S
C783        C784   1.408       .  A
C783        H787   1.083       .  S
C784        C788   1.485       .  S
C784        C785   1.406       .  A
C785        C786   1.398       .  A
C785       Br797   1.919       .  S
C786        H789   1.084       .  S
C788        C790   1.404   1_655  A
C788        C794   1.409       .  A
C790        C791   1.402       .  A
C790        H795   1.083       .  S
C791        C792   1.409   1_455  A
C791       Br799   1.919       .  S
C792        C793   1.403       .  A
C793        C794   1.403       .  A
C793        H796   1.081       .  S
C794       Br800   1.917       .  S
C801        C802   1.414       .  A
C801        C806   1.407       .  A
C802        C803   1.391       .  A
C802       Br818   1.924       .  S
C803        C804   1.401       .  A
C803        H807   1.084       .  S
C804        C808   1.484       .  S
C804        C805   1.409       .  A
C805        C806   1.407       .  A
C805       Br817   1.917       .  S
C806        H809   1.080       .  S
C808        C810   1.393       .  A
C808        C814   1.411       .  A
C810        C811   1.389       .  A
C810        H815   1.085       .  S
C811        C812   1.430       .  A
C811       Br819   1.932       .  S
C812        C813   1.411       .  A
C813        C814   1.410       .  A
C813        H816   1.083       .  S
C814       Br820   1.916       .  S
C821        C822   1.410       .  A
C821        C826   1.407       .  A
C822        C823   1.399       .  A
C822       Br838   1.916       .  S
C823        C824   1.402       .  A
C823        H827   1.084       .  S
C824        C828   1.471       .  S
C824        C825   1.404       .  A
C825        C826   1.395       .  A
C825       Br837   1.920       .  S
C826        H829   1.084       .  S
C828        C830   1.395       .  A
C828        C834   1.404       .  A
C830        C831   1.390       .  A
C830        H835   1.084       .  S
C831        C832   1.423       .  A
C831       Br839   1.928       .  S
C832        C833   1.411       .  A
C833        C834   1.401       .  A
C833        H836   1.083       .  S
C834       Br840   1.917       .  S
C841        C842   1.416   1_655  A
C841        C846   1.407       .  A
C842        C843   1.396       .  A
C842       Br858   1.918       .  S
C843        C844   1.398       .  A
C843        H847   1.084       .  S
C844        C848   1.473       .  S
C844        C845   1.405   1_455  A
C845        C846   1.401       .  A
C845       Br857   1.918       .  S
C846        H849   1.083       .  S
C848        C850   1.403       .  A
C848        C854   1.399   1_455  A
C850        C851   1.406       .  A
C850        H855   1.083       .  S
C851        C852   1.419       .  A
C851       Br859   1.920       .  S
C852        C853   1.414   1_455  A
C853        C854   1.388       .  A
C853        H856   1.083       .  S
C854       Br860   1.922       .  S
C861        C862   1.410       .  A
C861        C866   1.404   1_455  A
C862        C863   1.399       .  A
C862       Br878   1.911       .  S
C863        C864   1.399       .  A
C863        H867   1.084       .  S
C864        C868   1.472       .  S
C864        C865   1.406   1_455  A
C865        C866   1.397       .  A
C865       Br877   1.919       .  S
C866        H869   1.084       .  S
C868        C870   1.407       .  A
C868        C874   1.401       .  A
C870        C871   1.405       .  A
C870        H875   1.083       .  S
C871        C872   1.407       .  A
C871       Br879   1.918       .  S
C872        C873   1.404       .  A
C873        C874   1.390       .  A
C873        H876   1.081       .  S
C874       Br880   1.921   1_455  S
C881        C882   1.412       .  A
C881        C886   1.405       .  A
C882        C883   1.395       .  A
C882       Br898   1.911       .  S
C883        C884   1.398       .  A
C883        H887   1.084       .  S
C884        C888   1.472       .  S
C884        C885   1.406       .  A
C885        C886   1.399       .  A
C885       Br897   1.918       .  S
C886        H889   1.083       .  S
C888        C890   1.402       .  A
C888        C894   1.404       .  A
C890        C891   1.398       .  A
C890        H895   1.084       .  S
C891        C892   1.411       .  A
C891       Br899   1.919       .  S
C892        C893   1.405       .  A
C893        C894   1.395       .  A
C893        H896   1.083       .  S
C894       Br900   1.918       .  S
C901        C902   1.418       .  A
C901        C906   1.410       .  A
C902        C903   1.401       .  A
C902       Br918   1.914   1_455  S
C903        C904   1.402       .  A
C903        H907   1.084       .  S
C904        C908   1.489       .  S
C904        C905   1.408       .  A
C905        C906   1.401       .  A
C905       Br917   1.920       .  S
C906        H909   1.083       .  S
C908        C910   1.407       .  A
C908        C914   1.412       .  A
C910        C911   1.402       .  A
C910        H915   1.083       .  S
C911        C912   1.407       .  A
C911       Br919   1.918       .  S
C912        C913   1.401       .  A
C913        C914   1.399       .  A
C913        H916   1.084       .  S
C914       Br920   1.919       .  S
C921        C922   1.409       .  A
C921        C926   1.404       .  A
C922        C923   1.397       .  A
C922       Br938   1.918       .  S
C923        C924   1.402       .  A
C923        H927   1.084       .  S
C924        C928   1.470       .  S
C924        C925   1.405       .  A
C925        C926   1.393       .  A
C925       Br937   1.920       .  S
C926        H929   1.083       .  S
C928        C930   1.401       .  A
C928        C934   1.405       .  A
C930        C931   1.396       .  A
C930        H935   1.084       .  S
C931        C932   1.414       .  A
C931       Br939   1.920       .  S
C932        C933   1.407       .  A
C933        C934   1.392       .  A
C933        H936   1.084       .  S
C934       Br940   1.919       .  S
C941        C942   1.417       .  A
C941        C946   1.408       .  A
C942        C943   1.406       .  A
C942       Br958   1.919       .  S
C943        C944   1.406       .  A
C943        H947   1.083       .  S
C944        C948   1.497       .  S
C944        C945   1.411       .  A
C945        C946   1.402       .  A
C945       Br957   1.921       .  S
C946        H949   1.083       .  S
C948        C950   1.407       .  A
C948        C954   1.414       .  A
C950        C951   1.405       .  A
C950        H955   1.083       .  S
C951        C952   1.414       .  A
C951       Br959   1.922       .  S
C952        C953   1.403       .  A
C953        C954   1.402       .  A
C953        H956   1.084       .  S
C954       Br960   1.920       .  S
C961        C962   1.413       .  A
C961        C966   1.405       .  A
C962        C963   1.395       .  A
C962       Br978   1.915       .  S
C963        C964   1.399       .  A
C963        H967   1.084       .  S
C964        C968   1.471       .  S
C964        C965   1.405       .  A
C965        C966   1.398       .  A
C965       Br977   1.917       .  S
C966        H969   1.084       .  S
C968        C970   1.402       .  A
C968        C974   1.408       .  A
C970        C971   1.400       .  A
C970        H975   1.083       .  S
C971        C972   1.409       .  A
C971       Br979   1.920       .  S
C972        C973   1.398       .  A
C973        C974   1.394       .  A
C973        H976   1.084       .  S
C974       Br980   1.918       .  S
C981        C982   1.415       .  A
C981        C986   1.407       .  A
C982        C983   1.394       .  A
C982       Br998   1.922       .  S
C983        C984   1.400       .  A
C983        H987   1.084       .  S
C984        C988   1.478       .  S
C984        C985   1.409       .  A
C985        C986   1.398       .  A
C985       Br997   1.919       .  S
C986        H989   1.084       .  S
C988        C990   1.404       .  A
C988        C994   1.411       .  A
C990        C991   1.399       .  A
C990        H995   1.083       .  S
C991        C992   1.408       .  A
C991       Br999   1.919       .  S
C992        C993   1.399       .  A
C993        C994   1.394       .  A
C993        H996   1.084       .  S
C994      Br1000   1.921       .  S
C1001      C1002   1.410       .  A
C1001      C1006   1.405       .  A
C1002      C1003   1.405       .  A
C1002     Br1018   1.917       .  S
C1003      C1004   1.406       .  A
C1003      H1007   1.083       .  S
C1004      C1008   1.485       .  S
C1004      C1005   1.408       .  A
C1005      C1006   1.398       .  A
C1005     Br1017   1.920       .  S
C1006      H1009   1.084       .  S
C1008      C1010   1.401       .  A
C1008      C1014   1.408       .  A
C1010      C1011   1.399       .  A
C1010      H1015   1.084       .  S
C1011      C1012   1.417       .  A
C1011     Br1019   1.922       .  S
C1012      C1013   1.408       .  A
C1013      C1014   1.404       .  A
C1013      H1016   1.083       .  S
C1014     Br1020   1.918       .  S
C1021      C1022   1.404       .  A
C1021      C1026   1.404       .  A
C1022      C1023   1.396       .  A
C1022     Br1038   1.913       .  S
C1023      C1024   1.402       .  A
C1023      H1027   1.084       .  S
C1024      C1028   1.475       .  S
C1024      C1025   1.408       .  A
C1025      C1026   1.400       .  A
C1025     Br1037   1.919       .  S
C1026      H1029   1.084       .  S
C1028      C1030   1.400       .  A
C1028      C1034   1.404       .  A
C1030      C1031   1.399       .  A
C1030      H1035   1.084       .  S
C1031      C1032   1.416       .  A
C1031     Br1039   1.916       .  S
C1032      C1033   1.406       .  A
C1033      C1034   1.394       .  A
C1033      H1036   1.083       .  S
C1034     Br1040   1.917       .  S
C1041      C1042   1.415       .  A
C1041      C1046   1.409       .  A
C1042      C1043   1.398       .  A
C1042     Br1058   1.917       .  S
C1043      C1044   1.399       .  A
C1043      H1047   1.084       .  S
C1044      C1048   1.473       .  S
C1044      C1045   1.405       .  A
C1045      C1046   1.397       .  A
C1045     Br1057   1.919       .  S
C1046      H1049   1.084       .  S
C1048      C1050   1.399       .  A
C1048      C1054   1.409       .  A
C1050      C1051   1.395       .  A
C1050      H1055   1.084       .  S
C1051      C1052   1.412       .  A
C1051     Br1059   1.922       .  S
C1052      C1053   1.400       .  A
C1053      C1054   1.399       .  A
C1053      H1056   1.084       .  S
C1054     Br1060   1.917       .  S
C1061      C1062   1.425       .  A
C1061      C1066   1.410       .  A
C1062      C1063   1.402       .  A
C1062     Br1078   1.925       .  S
C1063      C1064   1.399       .  A
C1063      H1067   1.084       .  S
C1064      C1068   1.481       .  S
C1064      C1065   1.405       .  A
C1065      C1066   1.400       .  A
C1065     Br1077   1.919       .  S
C1066      H1069   1.082       .  S
C1068      C1070   1.401       .  A
C1068      C1074   1.408       .  A
C1070      C1071   1.399       .  A
C1070      H1075   1.084       .  S
C1071      C1072   1.414       .  A
C1071     Br1079   1.920       .  S
C1072      C1073   1.404       .  A
C1073      C1074   1.402       .  A
C1073      H1076   1.080       .  S
C1074     Br1080   1.919       .  S
C1081      C1082   1.419       .  A
C1081      C1086   1.409       .  A
C1082      C1083   1.397       .  A
C1082     Br1098   1.924       .  S
C1083      C1084   1.399       .  A
C1083      H1087   1.084       .  S
C1084      C1088   1.474       .  S
C1084      C1085   1.405       .  A
C1085      C1086   1.396       .  A
C1085     Br1097   1.919       .  S
C1086      H1089   1.083       .  S
C1088      C1090   1.400       .  A
C1088      C1094   1.407       .  A
C1090      C1091   1.397       .  A
C1090      H1095   1.084       .  S
C1091      C1092   1.412       .  A
C1091     Br1099   1.914       .  S
C1092      C1093   1.405       .  A
C1093      C1094   1.396       .  A
C1093      H1096   1.083       .  S
C1094     Br1100   1.920       .  S
C1101      C1102   1.416       .  A
C1101      C1106   1.409       .  A
C1102      C1103   1.401       .  A
C1102     Br1118   1.920       .  S
C1103      C1104   1.401       .  A
C1103      H1107   1.084       .  S
C1104      C1108   1.479       .  S
C1104      C1105   1.406       .  A
C1105      C1106   1.397       .  A
C1105     Br1117   1.920       .  S
C1106      H1109   1.083       .  S
C1108      C1110   1.402       .  A
C1108      C1114   1.406       .  A
C1110      C1111   1.402       .  A
C1110      H1115   1.084       .  S
C1111      C1112   1.414       .  A
C1111     Br1119   1.917       .  S
C1112      C1113   1.407       .  A
C1113      C1114   1.396       .  A
C1113      H1116   1.083       .  S
C1114     Br1120   1.920       .  S
C1121      C1122   1.412       .  A
C1121      C1126   1.402       .  A
C1122      C1123   1.397       .  A
C1122     Br1138   1.921       .  S
C1123      C1124   1.400       .  A
C1123      H1127   1.084       .  S
C1124      C1128   1.476       .  S
C1124      C1125   1.408       .  A
C1125      C1126   1.400       .  A
C1125     Br1137   1.918       .  S
C1126      H1129   1.080       .  S
C1128      C1130   1.399       .  A
C1128      C1134   1.406       .  A
C1130      C1131   1.399       .  A
C1130      H1135   1.084       .  S
C1131      C1132   1.416       .  A
C1131     Br1139   1.920       .  S
C1132      C1133   1.408       .  A
C1133      C1134   1.400       .  A
C1133      H1136   1.083       .  S
C1134     Br1140   1.919       .  S
C1141      C1142   1.409       .  A
C1141      C1146   1.400       .  A
C1142      C1143   1.398       .  A
C1142     Br1158   1.921       .  S
C1143      C1144   1.402       .  A
C1143      H1147   1.083       .  S
C1144      C1148   1.475       .  S
C1144      C1145   1.410       .  A
C1145      C1146   1.398       .  A
C1145     Br1157   1.919       .  S
C1146      H1149   1.084       .  S
C1148      C1150   1.401       .  A
C1148      C1154   1.406       .  A
C1150      C1151   1.399       .  A
C1150      H1155   1.084       .  S
C1151      C1152   1.415       .  A
C1151     Br1159   1.921       .  S
C1152      C1153   1.405       .  A
C1153      C1154   1.397       .  A
C1153      H1156   1.083       .  S
C1154     Br1160   1.919       .  S
C1161      C1162   1.423       .  A
C1161      C1166   1.410       .  A
C1162      C1163   1.401       .  A
C1162     Br1178   1.926       .  S
C1163      C1164   1.400       .  A
C1163      H1167   1.084       .  S
C1164      C1168   1.481       .  S
C1164      C1165   1.405       .  A
C1165      C1166   1.399       .  A
C1165     Br1177   1.918       .  S
C1166      H1169   1.083       .  S
C1168      C1170   1.398       .  A
C1168      C1174   1.410       .  A
C1170      C1171   1.396       .  A
C1170      H1175   1.084       .  S
C1171      C1172   1.418       .  A
C1171     Br1179   1.923       .  S
C1172      C1173   1.405       .  A
C1173      C1174   1.405       .  A
C1173      H1176   1.083       .  S
C1174     Br1180   1.918       .  S
C1181      C1182   1.412       .  A
C1181      C1186   1.406       .  A
C1182      C1183   1.400       .  A
C1182     Br1198   1.921       .  S
C1183      C1184   1.402       .  A
C1183      H1187   1.084       .  S
C1184      C1188   1.471       .  S
C1184      C1185   1.404       .  A
C1185      C1186   1.395       .  A
C1185     Br1197   1.918       .  S
C1186      H1189   1.084       .  S
C1188      C1190   1.401       .  A
C1188      C1194   1.407       .  A
C1190      C1191   1.398       .  A
C1190      H1195   1.084       .  S
C1191      C1192   1.407       .  A
C1191     Br1199   1.915       .  S
C1192      C1193   1.400       .  A
C1193      C1194   1.397       .  A
C1193      H1196   1.083       .  S
C1194     Br1200   1.917       .  S
C1201      C1202   1.416       .  A
C1201      C1206   1.409       .  A
C1202      C1203   1.403       .  A
C1202     Br1218   1.916   1_455  S
C1203      C1204   1.401       .  A
C1203      H1207   1.083       .  S
C1204      C1208   1.468       .  S
C1204      C1205   1.402       .  A
C1205      C1206   1.387       .  A
C1205     Br1217   1.922       .  S
C1206      H1209   1.083       .  S
C1208      C1210   1.398       .  A
C1208      C1214   1.407   1_545  A
C1210      C1211   1.391       .  A
C1210      H1215   1.084       .  S
C1211      C1212   1.413       .  A
C1211     Br1219   1.922       .  S
C1212      C1213   1.402   1_545  A
C1213      C1214   1.400       .  A
C1213      H1216   1.083       .  S
C1214     Br1220   1.917       .  S
C1221      C1222   1.413       .  A
C1221      C1226   1.409       .  A
C1222      C1223   1.405       .  A
C1222     Br1238   1.915   1_545  S
C1223      C1224   1.406       .  A
C1223      H1227   1.084   1_545  S
C1224      C1228   1.485       .  S
C1224      C1225   1.405       .  A
C1225      C1226   1.399       .  A
C1225     Br1237   1.918       .  S
C1226      H1229   1.083       .  S
C1228      C1230   1.406       .  A
C1228      C1234   1.408       .  A
C1230      C1231   1.406       .  A
C1230      H1235   1.083       .  S
C1231      C1232   1.411       .  A
C1231     Br1239   1.917       .  S
C1232      C1233   1.406       .  A
C1233      C1234   1.396       .  A
C1233      H1236   1.084   1_545  S
C1234     Br1240   1.920   1_545  S
C1241      C1242   1.423       .  A
C1241      C1246   1.416       .  A
C1242      C1243   1.396       .  A
C1242     Br1258   1.921       .  S
C1243      C1244   1.395       .  A
C1243      H1247   1.084       .  S
C1244      C1248   1.468       .  S
C1244      C1245   1.400       .  A
C1245      C1246   1.396       .  A
C1245     Br1257   1.921       .  S
C1246      H1249   1.074       .  S
C1248      C1250   1.403       .  A
C1248      C1254   1.404       .  A
C1250      C1251   1.400       .  A
C1250      H1255   1.083       .  S
C1251      C1252   1.407       .  A
C1251     Br1259   1.918       .  S
C1252      C1253   1.400       .  A
C1253      C1254   1.392       .  A
C1253      H1256   1.082       .  S
C1254     Br1260   1.920       .  S
C1261      C1262   1.412       .  A
C1261      C1266   1.403       .  A
C1262      C1263   1.402       .  A
C1262     Br1278   1.918       .  S
C1263      C1264   1.404       .  A
C1263      H1267   1.083       .  S
C1264      C1268   1.473       .  S
C1264      C1265   1.406       .  A
C1265      C1266   1.389       .  A
C1265     Br1277   1.921       .  S
C1266      H1269   1.084       .  S
C1268      C1270   1.403       .  A
C1268      C1274   1.406       .  A
C1270      C1271   1.393       .  A
C1270      H1275   1.084       .  S
C1271      C1272   1.407       .  A
C1271     Br1279   1.918       .  S
C1272      C1273   1.403       .  A
C1273      C1274   1.398       .  A
C1273      H1276   1.083       .  S
C1274     Br1280   1.917       .  S
C1281      C1282   1.423       .  A
C1281      C1286   1.416       .  A
C1282      C1283   1.397       .  A
C1282     Br1298   1.920       .  S
C1283      C1284   1.397       .  A
C1283      H1287   1.084       .  S
C1284      C1288   1.477       .  S
C1284      C1285   1.402       .  A
C1285      C1286   1.398       .  A
C1285     Br1297   1.921       .  S
C1286      H1289   1.075       .  S
C1288      C1290   1.405       .  A
C1288      C1294   1.408       .  A
C1290      C1291   1.398       .  A
C1290      H1295   1.083       .  S
C1291      C1292   1.405       .  A
C1291     Br1299   1.919       .  S
C1292      C1293   1.404       .  A
C1293      C1294   1.397       .  A
C1293      H1296   1.084       .  S
C1294     Br1300   1.920       .  S
C1301      C1302   1.411       .  A
C1301      C1306   1.406       .  A
C1302      C1303   1.404       .  A
C1302     Br1318   1.916       .  S
C1303      C1304   1.404       .  A
C1303      H1307   1.083       .  S
C1304      C1308   1.480       .  S
C1304      C1305   1.407       .  A
C1305      C1306   1.395       .  A
C1305     Br1317   1.920       .  S
C1306      H1309   1.084       .  S
C1308      C1310   1.397       .  A
C1308      C1314   1.411       .  A
C1310      C1311   1.397       .  A
C1310      H1315   1.084       .  S
C1311      C1312   1.416       .  A
C1311     Br1319   1.915       .  S
C1312      C1313   1.402       .  A
C1313      C1314   1.402       .  A
C1313      H1316   1.083       .  S
C1314     Br1320   1.918       .  S
C1321      C1322   1.421       .  A
C1321      C1326   1.408   1_565  A
C1322      C1323   1.411       .  A
C1322     Br1338   1.918       .  S
C1323      C1324   1.407       .  A
C1323      H1327   1.083       .  S
C1324      C1328   1.497       .  S
C1324      C1325   1.412   1_565  A
C1325      C1326   1.392       .  A
C1325     Br1337   1.925       .  S
C1326      H1329   1.082       .  S
C1328      C1330   1.396   1_565  A
C1328      C1334   1.417       .  A
C1330      C1331   1.387       .  A
C1330      H1335   1.084       .  S
C1331      C1332   1.422   1_545  A
C1331     Br1339   1.929       .  S
C1332      C1333   1.410       .  A
C1333      C1334   1.415       .  A
C1333      H1336   1.083       .  S
C1334     Br1340   1.917       .  S
C1341      C1342   1.407       .  A
C1341      C1346   1.403   1_545  A
C1342      C1343   1.393       .  A
C1342     Br1358   1.920       .  S
C1343      C1344   1.400   1_545  A
C1343      H1347   1.084       .  S
C1344      C1348   1.470       .  S
C1344      C1345   1.406       .  A
C1345      C1346   1.399       .  A
C1345     Br1357   1.917       .  S
C1346      H1349   1.082       .  S
C1348      C1350   1.401       .  A
C1348      C1354   1.405       .  A
C1350      C1351   1.401       .  A
C1350      H1355   1.084       .  S
C1351      C1352   1.412       .  A
C1351     Br1359   1.918   1_665  S
C1352      C1353   1.404       .  A
C1353      C1354   1.393       .  A
C1353      H1356   1.084       .  S
C1354     Br1360   1.920       .  S
C1361      C1362   1.421       .  A
C1361      C1366   1.416       .  A
C1362      C1363   1.404       .  A
C1362     Br1378   1.921       .  S
C1363      C1364   1.400       .  A
C1363      H1367   1.083       .  S
C1364      C1368   1.476       .  S
C1364      C1365   1.399       .  A
C1365      C1366   1.394       .  A
C1365     Br1377   1.920       .  S
C1366      H1369   1.078       .  S
C1368      C1370   1.399       .  A
C1368      C1374   1.404       .  A
C1370      C1371   1.400       .  A
C1370      H1375   1.084       .  S
C1371      C1372   1.419       .  A
C1371     Br1379   1.921       .  S
C1372      C1373   1.409       .  A
C1373      C1374   1.399       .  A
C1373      H1376   1.083       .  S
C1374     Br1380   1.918       .  S
C1381      C1382   1.406       .  A
C1381      C1386   1.406       .  A
C1382      C1383   1.402       .  A
C1382     Br1398   1.917       .  S
C1383      C1384   1.405       .  A
C1383      H1387   1.084       .  S
C1384      C1388   1.476       .  S
C1384      C1385   1.404       .  A
C1385      C1386   1.396       .  A
C1385     Br1397   1.919       .  S
C1386      H1389   1.084       .  S
C1388      C1390   1.400       .  A
C1388      C1394   1.410       .  A
C1390      C1391   1.399       .  A
C1390      H1395   1.083       .  S
C1391      C1392   1.411       .  A
C1391     Br1399   1.922       .  S
C1392      C1393   1.400       .  A
C1393      C1394   1.399       .  A
C1393      H1396   1.084       .  S
C1394     Br1400   1.919       .  S
C1401      C1402   1.425       .  A
C1401      C1406   1.412       .  A
C1402      C1403   1.398       .  A
C1402     Br1418   1.927       .  S
C1403      C1404   1.397       .  A
C1403      H1407   1.084       .  S
C1404      C1408   1.480       .  S
C1404      C1405   1.405       .  A
C1405      C1406   1.398       .  A
C1405     Br1417   1.920       .  S
C1406      H1409   1.075       .  S
C1408      C1410   1.403       .  A
C1408      C1414   1.407       .  A
C1410      C1411   1.400       .  A
C1410      H1415   1.084       .  S
C1411      C1412   1.415       .  A
C1411     Br1419   1.923       .  S
C1412      C1413   1.406       .  A
C1413      C1414   1.397       .  A
C1413      H1416   1.084       .  S
C1414     Br1420   1.920       .  S
C1421      C1422   1.408       .  A
C1421      C1426   1.403       .  A
C1422      C1423   1.394       .  A
C1422     Br1438   1.920       .  S
C1423      C1424   1.401       .  A
C1423      H1427   1.084       .  S
C1424      C1428   1.470       .  S
C1424      C1425   1.406       .  A
C1425      C1426   1.399       .  A
C1425     Br1437   1.917       .  S
C1426      H1429   1.084       .  S
C1428      C1430   1.401       .  A
C1428      C1434   1.407       .  A
C1430      C1431   1.396       .  A
C1430      H1435   1.084       .  S
C1431      C1432   1.407       .  A
C1431     Br1439   1.921       .  S
C1432      C1433   1.403       .  A
C1433      C1434   1.399       .  A
C1433      H1436   1.084       .  S
C1434     Br1440   1.918       .  S
C1441      C1442   1.407   1_655  A
C1441      C1446   1.405       .  A
C1442      C1443   1.400       .  A
C1442     Br1458   1.919       .  S
C1443      C1444   1.404   1_455  A
C1443      H1447   1.083       .  S
C1444      C1448   1.477       .  S
C1444      C1445   1.406       .  A
C1445      C1446   1.398       .  A
C1445     Br1457   1.919       .  S
C1446      H1449   1.082       .  S
C1448      C1450   1.396       .  A
C1448      C1454   1.402   1_655  A
C1450      C1451   1.399       .  A
C1450      H1455   1.084       .  S
C1451      C1452   1.425       .  A
C1451     Br1459   1.925       .  S
C1452      C1453   1.414   1_655  A
C1453      C1454   1.400       .  A
C1453      H1456   1.075       .  S
C1454     Br1460   1.919       .  S
C1461      C1462   1.424   1_655  A
C1461      C1466   1.415       .  A
C1462      C1463   1.398       .  A
C1462     Br1478   1.922       .  S
C1463      C1464   1.397   1_455  A
C1463      H1467   1.084       .  S
C1464      C1468   1.479       .  S
C1464      C1465   1.403       .  A
C1465      C1466   1.399       .  A
C1465     Br1477   1.920       .  S
C1466      H1469   1.077       .  S
C1468      C1470   1.405       .  A
C1468      C1474   1.407   1_655  A
C1470      C1471   1.400       .  A
C1470      H1475   1.084       .  S
C1471      C1472   1.407       .  A
C1471     Br1479   1.919       .  S
C1472      C1473   1.404   1_655  A
C1473      C1474   1.397       .  A
C1473      H1476   1.084       .  S
C1474     Br1480   1.919       .  S
C1481      C1482   1.422       .  A
C1481      C1486   1.409       .  A
C1482      C1483   1.397       .  A
C1482     Br1498   1.925       .  S
C1483      C1484   1.397       .  A
C1483      H1487   1.084       .  S
C1484      C1488   1.473       .  S
C1484      C1485   1.404       .  A
C1485      C1486   1.399       .  A
C1485     Br1497   1.917       .  S
C1486      H1489   1.083       .  S
C1488      C1490   1.398       .  A
C1488      C1494   1.405       .  A
C1490      C1491   1.398       .  A
C1490      H1495   1.084       .  S
C1491      C1492   1.415       .  A
C1491     Br1499   1.917       .  S
C1492      C1493   1.409       .  A
C1493      C1494   1.400       .  A
C1493      H1496   1.083       .  S
C1494     Br1500   1.919       .  S
C1501      C1502   1.425       .  A
C1501      C1506   1.411       .  A
C1502      C1503   1.400       .  A
C1502     Br1518   1.926       .  S
C1503      C1504   1.398       .  A
C1503      H1507   1.084       .  S
C1504      C1508   1.475       .  S
C1504      C1505   1.402       .  A
C1505      C1506   1.398       .  A
C1505     Br1517   1.918       .  S
C1506      H1509   1.083       .  S
C1508      C1510   1.402       .  A
C1508      C1514   1.404       .  A
C1510      C1511   1.401       .  A
C1510      H1515   1.084       .  S
C1511      C1512   1.412       .  A
C1511     Br1519   1.916       .  S
C1512      C1513   1.407       .  A
C1513      C1514   1.397       .  A
C1513      H1516   1.083       .  S
C1514     Br1520   1.918       .  S
C1521      C1522   1.410       .  A
C1521      C1526   1.404       .  A
C1522      C1523   1.405       .  A
C1522     Br1538   1.918       .  S
C1523      C1524   1.407       .  A
C1523      H1527   1.083       .  S
C1524      C1528   1.493       .  S
C1524      C1525   1.412       .  A
C1525      C1526   1.402       .  A
C1525     Br1537   1.920       .  S
C1526      H1529   1.084       .  S
C1528      C1530   1.405       .  A
C1528      C1534   1.411       .  A
C1530      C1531   1.402       .  A
C1530      H1535   1.083       .  S
C1531      C1532   1.412       .  A
C1531     Br1539   1.919       .  S
C1532      C1533   1.406       .  A
C1533      C1534   1.403       .  A
C1533      H1536   1.083       .  S
C1534     Br1540   1.919       .  S
C1541      C1542   1.414       .  A
C1541      C1546   1.405       .  A
C1542      C1543   1.397       .  A
C1542     Br1558   1.916       .  S
C1543      C1544   1.399       .  A
C1543      H1547   1.084       .  S
C1544      C1548   1.476       .  S
C1544      C1545   1.408       .  A
C1545      C1546   1.401       .  A
C1545     Br1557   1.919       .  S
C1546      H1549   1.084       .  S
C1548      C1550   1.403       .  A
C1548      C1554   1.409       .  A
C1550      C1551   1.397       .  A
C1550      H1555   1.084       .  S
C1551      C1552   1.407       .  A
C1551     Br1559   1.919       .  S
C1552      C1553   1.400       .  A
C1553      C1554   1.397       .  A
C1553      H1556   1.084       .  S
C1554     Br1560   1.918       .  S
C1561      C1562   1.420       .  A
C1561      C1566   1.411       .  A
C1562      C1563   1.396       .  A
C1562     Br1578   1.924       .  S
C1563      C1564   1.397       .  A
C1563      H1567   1.084       .  S
C1564      C1568   1.461       .  S
C1564      C1565   1.398       .  A
C1565      C1566   1.390       .  A
C1565     Br1577   1.920       .  S
C1566      H1569   1.083       .  S
C1568      C1570   1.395       .  A
C1568      C1574   1.400       .  A
C1570      C1571   1.393       .  A
C1570      H1575   1.084       .  S
C1571      C1572   1.416       .  A
C1571     Br1579   1.913       .  S
C1572      C1573   1.409       .  A
C1573      C1574   1.395       .  A
C1573      H1576   1.083       .  S
C1574     Br1580   1.919       .  S
C1581      C1582   1.421       .  A
C1581      C1586   1.412       .  A
C1582      C1583   1.407       .  A
C1582     Br1598   1.922       .  S
C1583      C1584   1.403       .  A
C1583      H1587   1.084       .  S
C1584      C1588   1.491       .  S
C1584      C1585   1.406       .  A
C1585      C1586   1.405       .  A
C1585     Br1597   1.918       .  S
C1586      H1589   1.083       .  S
C1588      C1590   1.403       .  A
C1588      C1594   1.411       .  A
C1590      C1591   1.403       .  A
C1590      H1595   1.083       .  S
C1591      C1592   1.413       .  A
C1591     Br1599   1.920       .  S
C1592      C1593   1.404       .  A
C1593      C1594   1.407       .  A
C1593      H1596   1.083       .  S
C1594     Br1600   1.916       .  S
C1601      C1602   1.414       .  A
C1601      C1606   1.407       .  A
C1602      C1603   1.400       .  A
C1602     Br1618   1.914       .  S
C1603      C1604   1.400       .  A
C1603      H1607   1.084       .  S
C1604      C1608   1.478       .  S
C1604      C1605   1.406       .  A
C1605      C1606   1.399       .  A
C1605     Br1617   1.918       .  S
C1606      H1609   1.083       .  S
C1608      C1610   1.401       .  A
C1608      C1614   1.404       .  A
C1610      C1611   1.400       .  A
C1610      H1615   1.084       .  S
C1611      C1612   1.418       .  A
C1611     Br1619   1.921       .  S
C1612      C1613   1.412       .  A
C1613      C1614   1.397       .  A
C1613      H1616   1.083       .  S
C1614     Br1620   1.919       .  S
C1621      C1622   1.424       .  A
C1621      C1626   1.412       .  A
C1622      C1623   1.403       .  A
C1622     Br1638   1.911       .  S
C1623      C1624   1.399       .  A
C1623      H1627   1.084       .  S
C1624      C1628   1.493       .  S
C1624      C1625   1.409       .  A
C1625      C1626   1.403       .  A
C1625     Br1637   1.919       .  S
C1626      H1629   1.083       .  S
C1628      C1630   1.406       .  A
C1628      C1634   1.415       .  A
C1630      C1631   1.401       .  A
C1630      H1635   1.083       .  S
C1631      C1632   1.405       .  A
C1631     Br1639   1.917       .  S
C1632      C1633   1.405       .  A
C1633      C1634   1.405       .  A
C1633      H1636   1.084       .  S
C1634     Br1640   1.921       .  S
C1641      C1642   1.424   1_655  A
C1641      C1646   1.414       .  A
C1642      C1643   1.400       .  A
C1642     Br1658   1.924       .  S
C1643      C1644   1.398   1_455  A
C1643      H1647   1.084       .  S
C1644      C1648   1.471       .  S
C1644      C1645   1.399       .  A
C1645      C1646   1.391       .  A
C1645     Br1657   1.922       .  S
C1646      H1649   1.073       .  S
C1648      C1650   1.400   1_655  A
C1648      C1654   1.405       .  A
C1650      C1651   1.395       .  A
C1650      H1655   1.084       .  S
C1651      C1652   1.416   1_455  A
C1651     Br1659   1.924       .  S
C1652      C1653   1.405       .  A
C1653      C1654   1.396       .  A
C1653      H1656   1.081       .  S
C1654     Br1660   1.918       .  S
C1661      C1662   1.424       .  A
C1661      C1666   1.414   1_455  A
C1662      C1663   1.402       .  A
C1662     Br1678   1.923       .  S
C1663      C1664   1.399   1_455  A
C1663      H1667   1.084       .  S
C1664      C1668   1.482       .  S
C1664      C1665   1.404       .  A
C1665      C1666   1.396       .  A
C1665     Br1677   1.922       .  S
C1666      H1669   1.073       .  S
C1668      C1670   1.403       .  A
C1668      C1674   1.412       .  A
C1670      C1671   1.396       .  A
C1670      H1675   1.084   1_655  S
C1671      C1672   1.407       .  A
C1671     Br1679   1.920       .  S
C1672      C1673   1.402       .  A
C1673      C1674   1.403       .  A
C1673      H1676   1.084       .  S
C1674     Br1680   1.918       .  S
C1681      C1682   1.417       .  A
C1681      C1686   1.407       .  A
C1682      C1683   1.403       .  A
C1682     Br1698   1.922       .  S
C1683      C1684   1.403       .  A
C1683      H1687   1.083       .  S
C1684      C1688   1.485       .  S
C1684      C1685   1.408       .  A
C1685      C1686   1.400       .  A
C1685     Br1697   1.920       .  S
C1686      H1689   1.084       .  S
C1688      C1690   1.402       .  A
C1688      C1694   1.409       .  A
C1690      C1691   1.399       .  A
C1690      H1695   1.084       .  S
C1691      C1692   1.412       .  A
C1691     Br1699   1.918       .  S
C1692      C1693   1.406       .  A
C1693      C1694   1.402       .  A
C1693      H1696   1.083       .  S
C1694     Br1700   1.918       .  S
C1701      C1702   1.420       .  A
C1701      C1706   1.409       .  A
C1702      C1703   1.398       .  A
C1702     Br1718   1.924       .  S
C1703      C1704   1.398       .  A
C1703      H1707   1.084       .  S
C1704      C1708   1.475       .  S
C1704      C1705   1.405       .  A
C1705      C1706   1.399       .  A
C1705     Br1717   1.918       .  S
C1706      H1709   1.083       .  S
C1708      C1710   1.400       .  A
C1708      C1714   1.407       .  A
C1710      C1711   1.398       .  A
C1710      H1715   1.084       .  S
C1711      C1712   1.411       .  A
C1711     Br1719   1.919       .  S
C1712      C1713   1.405       .  A
C1713      C1714   1.400       .  A
C1713      H1716   1.084       .  S
C1714     Br1720   1.918       .  S
C1721      C1722   1.411       .  A
C1721      C1726   1.403       .  A
C1722      C1723   1.397       .  A
C1722     Br1738   1.918       .  S
C1723      C1724   1.401       .  A
C1723      H1727   1.084       .  S
C1724      C1728   1.479       .  S
C1724      C1725   1.410       .  A
C1725      C1726   1.399       .  A
C1725     Br1737   1.918       .  S
C1726      H1729   1.084       .  S
C1728      C1730   1.396       .  A
C1728      C1734   1.405       .  A
C1730      C1731   1.396       .  A
C1730      H1735   1.084       .  S
C1731      C1732   1.423       .  A
C1731     Br1739   1.917       .  S
C1732      C1733   1.413       .  A
C1733      C1734   1.401       .  A
C1733      H1736   1.082       .  S
C1734     Br1740   1.920       .  S
C1741      C1742   1.418       .  A
C1741      C1746   1.413       .  A
C1742      C1743   1.401       .  A
C1742     Br1758   1.919       .  S
C1743      C1744   1.400       .  A
C1743      H1747   1.084       .  S
C1744      C1748   1.483       .  S
C1744      C1745   1.406       .  A
C1745      C1746   1.405       .  A
C1745     Br1757   1.919       .  S
C1746      H1749   1.083       .  S
C1748      C1750   1.399       .  A
C1748      C1754   1.411       .  A
C1750      C1751   1.396       .  A
C1750      H1755   1.084       .  S
C1751      C1752   1.413       .  A
C1751     Br1759   1.920       .  S
C1752      C1753   1.404       .  A
C1753      C1754   1.407       .  A
C1753      H1756   1.083       .  S
C1754     Br1760   1.916       .  S
C1761      C1762   1.406       .  A
C1761      C1766   1.405       .  A
C1762      C1763   1.401       .  A
C1762     Br1778   1.917       .  S
C1763      C1764   1.406       .  A
C1763      H1767   1.083       .  S
C1764      C1768   1.493       .  S
C1764      C1765   1.413       .  A
C1765      C1766   1.406       .  A
C1765     Br1777   1.919       .  S
C1766      H1769   1.084       .  S
C1768      C1770   1.409       .  A
C1768      C1774   1.410       .  A
C1770      C1771   1.408       .  A
C1770      H1775   1.083       .  S
C1771      C1772   1.410       .  A
C1771     Br1779   1.917       .  S
C1772      C1773   1.398       .  A
C1773      C1774   1.397       .  A
C1773      H1776   1.083       .  S
C1774     Br1780   1.919       .  S
C1781      C1782   1.420       .  A
C1781      C1786   1.408       .  A
C1782      C1783   1.400       .  A
C1782     Br1798   1.924       .  S
C1783      C1784   1.401       .  A
C1783      H1787   1.084       .  S
C1784      C1788   1.482       .  S
C1784      C1785   1.407       .  A
C1785      C1786   1.398       .  A
C1785     Br1797   1.919       .  S
C1786      H1789   1.083       .  S
C1788      C1790   1.403       .  A
C1788      C1794   1.408       .  A
C1790      C1791   1.400       .  A
C1790      H1795   1.084       .  S
C1791      C1792   1.414       .  A
C1791     Br1799   1.920       .  S
C1792      C1793   1.406       .  A
C1793      C1794   1.398       .  A
C1793      H1796   1.081       .  S
C1794     Br1800   1.920       .  S
C1801      C1802   1.406       .  A
C1801      C1806   1.406       .  A
C1802      C1803   1.400       .  A
C1802     Br1818   1.918       .  S
C1803      C1804   1.404       .  A
C1803      H1807   1.083       .  S
C1804      C1808   1.484       .  S
C1804      C1805   1.409       .  A
C1805      C1806   1.402       .  A
C1805     Br1817   1.919       .  S
C1806      H1809   1.084       .  S
C1808      C1810   1.402       .  A
C1808      C1814   1.408       .  A
C1810      C1811   1.401       .  A
C1810      H1815   1.084       .  S
C1811      C1812   1.413       .  A
C1811     Br1819   1.915       .  S
C1812      C1813   1.405       .  A
C1813      C1814   1.401       .  A
C1813      H1816   1.083       .  S
C1814     Br1820   1.918       .  S
C1821      C1822   1.409       .  A
C1821      C1826   1.407       .  A
C1822      C1823   1.397       .  A
C1822     Br1838   1.908       .  S
C1823      C1824   1.400       .  A
C1823      H1827   1.084       .  S
C1824      C1828   1.485       .  S
C1824      C1825   1.411       .  A
C1825      C1826   1.406       .  A
C1825     Br1837   1.917       .  S
C1826      H1829   1.084       .  S
C1828      C1830   1.405       .  A
C1828      C1834   1.410       .  A
C1830      C1831   1.404       .  A
C1830      H1835   1.083       .  S
C1831      C1832   1.411       .  A
C1831     Br1839   1.917       .  S
C1832      C1833   1.402       .  A
C1833      C1834   1.399       .  A
C1833      H1836   1.084       .  S
C1834     Br1840   1.919       .  S
C1841      C1842   1.425       .  A
C1841      C1846   1.412       .  A
C1842      C1843   1.395       .  A
C1842     Br1858   1.925       .  S
C1843      C1844   1.396       .  A
C1843      H1847   1.084       .  S
C1844      C1848   1.475       .  S
C1844      C1845   1.404       .  A
C1845      C1846   1.398       .  A
C1845     Br1857   1.919       .  S
C1846      H1849   1.077       .  S
C1848      C1850   1.402       .  A
C1848      C1854   1.406       .  A
C1850      C1851   1.398       .  A
C1850      H1855   1.084       .  S
C1851      C1852   1.412       .  A
C1851     Br1859   1.922       .  S
C1852      C1853   1.407       .  A
C1853      C1854   1.395       .  A
C1853      H1856   1.083       .  S
C1854     Br1860   1.920       .  S
C1861      C1862   1.419       .  A
C1861      C1866   1.407       .  A
C1862      C1863   1.392       .  A
C1862     Br1878   1.922       .  S
C1863      C1864   1.398       .  A
C1863      H1867   1.084       .  S
C1864      C1868   1.485       .  S
C1864      C1865   1.412       .  A
C1865      C1866   1.406       .  A
C1865     Br1877   1.918       .  S
C1866      H1869   1.083       .  S
C1868      C1870   1.409       .  A
C1868      C1874   1.407       .  A
C1870      C1871   1.402       .  A
C1870      H1875   1.084       .  S
C1871      C1872   1.407       .  A
C1871     Br1879   1.915       .  S
C1872      C1873   1.408       .  A
C1873      C1874   1.398       .  A
C1873      H1876   1.083       .  S
C1874     Br1880   1.920       .  S
C1881      C1882   1.422       .  A
C1881      C1886   1.415       .  A
C1882      C1883   1.396       .  A
C1882     Br1898   1.924       .  S
C1883      C1884   1.395       .  A
C1883      H1887   1.084       .  S
C1884      C1888   1.467       .  S
C1884      C1885   1.400       .  A
C1885      C1886   1.395       .  A
C1885     Br1897   1.921       .  S
C1886      H1889   1.074       .  S
C1888      C1890   1.402       .  A
C1888      C1894   1.405       .  A
C1890      C1891   1.398       .  A
C1890      H1895   1.083       .  S
C1891      C1892   1.406       .  A
C1891     Br1899   1.919       .  S
C1892      C1893   1.402       .  A
C1893      C1894   1.394       .  A
C1893      H1896   1.084       .  S
C1894     Br1900   1.920       .  S
C1901      C1902   1.410       .  A
C1901      C1906   1.399       .  A
C1902      C1903   1.398       .  A
C1902     Br1918   1.920       .  S
C1903      C1904   1.402       .  A
C1903      H1907   1.083       .  S
C1904      C1908   1.472       .  S
C1904      C1905   1.408       .  A
C1905      C1906   1.396       .  A
C1905     Br1917   1.919       .  S
C1906      H1909   1.081       .  S
C1908      C1910   1.398       .  A
C1908      C1914   1.406       .  A
C1910      C1911   1.394       .  A
C1910      H1915   1.084       .  S
C1911      C1912   1.415       .  A
C1911     Br1919   1.922       .  S
C1912      C1913   1.407       .  A
C1913      C1914   1.400       .  A
C1913      H1916   1.083       .  S
C1914     Br1920   1.918       .  S
C1921      C1922   1.423       .  A
C1921      C1926   1.418       .  A
C1922      C1923   1.401       .  A
C1922     Br1938   1.917       .  S
C1923      C1924   1.398       .  A
C1923      H1927   1.084       .  S
C1924      C1928   1.475       .  S
C1924      C1925   1.399       .  A
C1925      C1926   1.393       .  A
C1925     Br1937   1.923       .  S
C1926      H1929   1.071       .  S
C1928      C1930   1.401   1_556  A
C1928      C1934   1.405       .  A
C1930      C1931   1.398       .  A
C1930      H1935   1.084       .  S
C1931      C1932   1.417   1_554  A
C1931     Br1939   1.924       .  S
C1932      C1933   1.407       .  A
C1933      C1934   1.396       .  A
C1933      H1936   1.083       .  S
C1934     Br1940   1.919       .  S
C1941      C1942   1.413       .  A
C1941      C1946   1.401   1_556  A
C1942      C1943   1.398       .  A
C1942     Br1958   1.921       .  S
C1943      C1944   1.400       .  A
C1943      H1947   1.083       .  S
C1944      C1948   1.485       .  S
C1944      C1945   1.413       .  A
C1945      C1946   1.405   1_556  A
C1945     Br1957   1.918   1_556  S
C1946      H1949   1.083       .  S
C1948      C1950   1.403       .  A
C1948      C1954   1.409       .  A
C1950      C1951   1.399       .  A
C1950      H1955   1.084   1_556  S
C1951      C1952   1.412       .  A
C1951     Br1959   1.921   1_556  S
C1952      C1953   1.405       .  A
C1953      C1954   1.404       .  A
C1953      H1956   1.082       .  S
C1954     Br1960   1.917       .  S
C1961      C1962   1.423       .  A
C1961      C1966   1.415       .  A
C1962      C1963   1.403       .  A
C1962     Br1978   1.922       .  S
C1963      C1964   1.401       .  A
C1963      H1967   1.084       .  S
C1964      C1968   1.472       .  S
C1964      C1965   1.398       .  A
C1965      C1966   1.389       .  A
C1965     Br1977   1.923   1_556  S
C1966      H1969   1.073   1_556  S
C1968      C1970   1.403       .  A
C1968      C1974   1.405   1_556  A
C1970      C1971   1.398       .  A
C1970      H1975   1.084       .  S
C1971      C1972   1.412       .  A
C1971     Br1979   1.921       .  S
C1972      C1973   1.406   1_556  A
C1973      C1974   1.394       .  A
C1973      H1976   1.082       .  S
C1974     Br1980   1.921       .  S
C1981      C1982   1.406       .  A
C1981      C1986   1.402       .  A
C1982      C1983   1.399       .  A
C1982     Br1998   1.919       .  S
C1983      C1984   1.406       .  A
C1983      H1987   1.083       .  S
C1984      C1988   1.481       .  S
C1984      C1985   1.410       .  A
C1985      C1986   1.399       .  A
C1985     Br1997   1.919   1_556  S
C1986      H1989   1.083   1_556  S
C1988      C1990   1.404   1_556  A
C1988      C1994   1.409       .  A
C1990      C1991   1.399       .  A
C1990      H1995   1.083       .  S
C1991      C1992   1.407   1_554  A
C1991     Br1999   1.917       .  S
C1992      C1993   1.402       .  A
C1993      C1994   1.397       .  A
C1993      H1996   1.083       .  S
C1994     Br2000   1.919       .  S
C2001      C2002   1.423       .  A
C2001      C2006   1.416       .  A
C2002      C2003   1.398       .  A
C2002     Br2018   1.924       .  S
C2003      C2004   1.398       .  A
C2003      H2007   1.084       .  S
C2004      C2008   1.486       .  S
C2004      C2005   1.407       .  A
C2005      C2006   1.404       .  A
C2005     Br2017   1.921       .  S
C2006      H2009   1.075       .  S
C2008      C2010   1.401       .  A
C2008      C2014   1.409       .  A
C2010      C2011   1.399       .  A
C2010      H2015   1.084       .  S
C2011      C2012   1.419       .  A
C2011     Br2019   1.921       .  S
C2012      C2013   1.408       .  A
C2013      C2014   1.402       .  A
C2013      H2016   1.082       .  S
C2014     Br2020   1.918       .  S
C2021      C2022   1.413       .  A
C2021      C2026   1.405       .  A
C2022      C2023   1.403       .  A
C2022     Br2038   1.917       .  S
C2023      C2024   1.402       .  A
C2023      H2027   1.083       .  S
C2024      C2028   1.478       .  S
C2024      C2025   1.407       .  A
C2025      C2026   1.398       .  A
C2025     Br2037   1.919       .  S
C2026      H2029   1.084       .  S
C2028      C2030   1.402       .  A
C2028      C2034   1.408       .  A
C2030      C2031   1.401       .  A
C2030      H2035   1.083       .  S
C2031      C2032   1.411       .  A
C2031     Br2039   1.917       .  S
C2032      C2033   1.401       .  A
C2033      C2034   1.398       .  A
C2033      H2036   1.083       .  S
C2034     Br2040   1.918       .  S
C2041      C2042   1.418       .  A
C2041      C2046   1.415   1_556  A
C2042      C2043   1.405       .  A
C2042     Br2058   1.922       .  S
C2043      C2044   1.406       .  A
C2043      H2047   1.083       .  S
C2044      C2048   1.490       .  S
C2044      C2045   1.405   1_556  A
C2045      C2046   1.394       .  A
C2045     Br2057   1.922       .  S
C2046      H2049   1.076       .  S
C2048      C2050   1.409       .  A
C2048      C2054   1.411   1_556  A
C2050      C2051   1.403       .  A
C2050      H2055   1.083       .  S
C2051      C2052   1.409       .  A
C2051     Br2059   1.920       .  S
C2052      C2053   1.404   1_556  A
C2053      C2054   1.398       .  A
C2053      H2056   1.084       .  S
C2054     Br2060   1.920       .  S
C2061      C2062   1.416       .  A
C2061      C2066   1.402   1_554  A
C2062      C2063   1.391       .  A
C2062     Br2078   1.925       .  S
C2063      C2064   1.398       .  A
C2063      H2067   1.084       .  S
C2064      C2068   1.478       .  S
C2064      C2065   1.412   1_554  A
C2065      C2066   1.402       .  A
C2065     Br2077   1.919       .  S
C2066      H2069   1.083       .  S
C2068      C2070   1.398   1_554  A
C2068      C2074   1.411       .  A
C2070      C2071   1.392       .  A
C2070      H2075   1.084       .  S
C2071      C2072   1.416   1_556  A
C2071     Br2079   1.921       .  S
C2072      C2073   1.405       .  A
C2073      C2074   1.402       .  A
C2073      H2076   1.083       .  S
C2074     Br2080   1.919       .  S
C2081      C2082   1.422       .  A
C2081      C2086   1.413   1_554  A
C2082      C2083   1.401       .  A
C2082     Br2098   1.923       .  S
C2083      C2084   1.398       .  A
C2083      H2087   1.084       .  S
C2084      C2088   1.465       .  S
C2084      C2085   1.398   1_554  A
C2085      C2086   1.388       .  A
C2085     Br2097   1.921       .  S
C2086      H2089   1.079       .  S
C2088      C2090   1.400       .  A
C2088      C2094   1.403   1_554  A
C2090      C2091   1.396       .  A
C2090      H2095   1.084       .  S
C2091      C2092   1.413       .  A
C2091     Br2099   1.922       .  S
C2092      C2093   1.407   1_554  A
C2093      C2094   1.393       .  A
C2093      H2096   1.084       .  S
C2094     Br2100   1.918       .  S
C2101      C2102   1.414       .  A
C2101      C2106   1.413   1_554  A
C2102      C2103   1.412       .  A
C2102     Br2118   1.917       .  S
C2103      C2104   1.409       .  A
C2103      H2107   1.083       .  S
C2104      C2108   1.482       .  S
C2104      C2105   1.400   1_554  A
C2105      C2106   1.389       .  A
C2105     Br2117   1.922       .  S
C2106      H2109   1.083       .  S
C2108      C2110   1.402   1_554  A
C2108      C2114   1.408       .  A
C2110      C2111   1.396       .  A
C2110      H2115   1.084       .  S
C2111      C2112   1.411   1_556  A
C2111     Br2119   1.921       .  S
C2112      C2113   1.404       .  A
C2113      C2114   1.405       .  A
C2113      H2116   1.082       .  S
C2114     Br2120   1.916       .  S
C2121      C2122   1.413       .  A
C2121      C2126   1.408   1_545  A
C2122      C2123   1.402       .  A
C2122     Br2138   1.921       .  S
C2123      C2124   1.403       .  A
C2123      H2127   1.083       .  S
C2124      C2128   1.485       .  S
C2124      C2125   1.408   1_545  A
C2125      C2126   1.403       .  A
C2125     Br2137   1.918       .  S
C2126      H2129   1.084       .  S
C2128      C2130   1.397   1_545  A
C2128      C2134   1.405       .  A
C2130      C2131   1.401       .  A
C2130      H2135   1.084       .  S
C2131      C2132   1.426   1_565  A
C2131     Br2139   1.925       .  S
C2132      C2133   1.416       .  A
C2133      C2134   1.406       .  A
C2133      H2136   1.076       .  S
C2134     Br2140   1.919       .  S
C2141      C2142   1.408       .  A
C2141      C2146   1.403       .  A
C2142      C2143   1.397       .  A
C2142     Br2158   1.919       .  S
C2143      C2144   1.404       .  A
C2143      H2147   1.084       .  S
C2144      C2148   1.490       .  S
C2144      C2145   1.415       .  A
C2145      C2146   1.403       .  A
C2145     Br2157   1.919   1_545  S
C2146      H2149   1.084   1_545  S
C2148      C2150   1.401   1_545  A
C2148      C2154   1.408       .  A
C2150      C2151   1.401       .  A
C2150      H2155   1.083       .  S
C2151      C2152   1.423   1_565  A
C2151     Br2159   1.924       .  S
C2152      C2153   1.412       .  A
C2153      C2154   1.400       .  A
C2153      H2156   1.078       .  S
C2154     Br2160   1.921       .  S
C2161      C2162   1.418       .  A
C2161      C2166   1.408       .  A
C2162      C2163   1.400       .  A
C2162     Br2178   1.921       .  S
C2163      C2164   1.400       .  A
C2163      H2167   1.084       .  S
C2164      C2168   1.478       .  S
C2164      C2165   1.405       .  A
C2165      C2166   1.398       .  A
C2165     Br2177   1.918       .  S
C2166      H2169   1.083       .  S
C2168      C2170   1.400       .  A
C2168      C2174   1.407       .  A
C2170      C2171   1.399       .  A
C2170      H2175   1.084       .  S
C2171      C2172   1.416       .  A
C2171     Br2179   1.921       .  S
C2172      C2173   1.405       .  A
C2173      C2174   1.400       .  A
C2173      H2176   1.083       .  S
C2174     Br2180   1.918       .  S
C2181      C2182   1.419       .  A
C2181      C2186   1.411       .  A
C2182      C2183   1.405       .  A
C2182     Br2198   1.916       .  S
C2183      C2184   1.402       .  A
C2183      H2187   1.084       .  S
C2184      C2188   1.486       .  S
C2184      C2185   1.404       .  A
C2185      C2186   1.402       .  A
C2185     Br2197   1.918       .  S
C2186      H2189   1.083       .  S
C2188      C2190   1.401       .  A
C2188      C2194   1.406       .  A
C2190      C2191   1.403       .  A
C2190      H2195   1.084       .  S
C2191      C2192   1.420       .  A
C2191     Br2199   1.923       .  S
C2192      C2193   1.412       .  A
C2193      C2194   1.402       .  A
C2193      H2196   1.083       .  S
C2194     Br2200   1.917       .  S
C2201      C2202   1.414       .  A
C2201      C2206   1.404       .  A
C2202      C2203   1.394       .  A
C2202     Br2218   1.920       .  S
C2203      C2204   1.398       .  A
C2203      H2207   1.084       .  S
C2204      C2208   1.467       .  S
C2204      C2205   1.406       .  A
C2205      C2206   1.396       .  A
C2205     Br2217   1.920       .  S
C2206      H2209   1.084       .  S
C2208      C2210   1.401       .  A
C2208      C2214   1.406       .  A
C2210      C2211   1.395       .  A
C2210      H2215   1.084       .  S
C2211      C2212   1.409       .  A
C2211     Br2219   1.919       .  S
C2212      C2213   1.400       .  A
C2213      C2214   1.393       .  A
C2213      H2216   1.083       .  S
C2214     Br2220   1.919       .  S
C2221      C2222   1.406       .  A
C2221      C2226   1.403       .  A
C2222      C2223   1.391       .  A
C2222     Br2238   1.918       .  S
C2223      C2224   1.400       .  A
C2223      H2227   1.084       .  S
C2224      C2228   1.476       .  S
C2224      C2225   1.411       .  A
C2225      C2226   1.403       .  A
C2225     Br2237   1.919       .  S
C2226      H2229   1.083       .  S
C2228      C2230   1.398       .  A
C2228      C2234   1.404       .  A
C2230      C2231   1.400       .  A
C2230      H2235   1.084       .  S
C2231      C2232   1.424       .  A
C2231     Br2239   1.923       .  S
C2232      C2233   1.413       .  A
C2233      C2234   1.394       .  A
C2233      H2236   1.077       .  S
C2234     Br2240   1.923       .  S
C2241      C2242   1.413       .  A
C2241      C2246   1.406       .  A
C2242      C2243   1.395       .  A
C2242     Br2258   1.913       .  S
C2243      C2244   1.398       .  A
C2243      H2247   1.084       .  S
C2244      C2248   1.477       .  S
C2244      C2245   1.408       .  A
C2245      C2246   1.401       .  A
C2245     Br2257   1.917       .  S
C2246      H2249   1.084       .  S
C2248      C2250   1.396       .  A
C2248      C2254   1.404       .  A
C2250      C2251   1.396       .  A
C2250      H2255   1.084       .  S
C2251      C2252   1.423       .  A
C2251     Br2259   1.925       .  S
C2252      C2253   1.416       .  A
C2253      C2254   1.401       .  A
C2253      H2256   1.075       .  S
C2254     Br2260   1.920       .  S
C2261      C2262   1.421       .  A
C2261      C2266   1.409       .  A
C2262      C2263   1.402       .  A
C2262     Br2278   1.916   1_554  S
C2263      C2264   1.402       .  A
C2263      H2267   1.083       .  S
C2264      C2268   1.492       .  S
C2264      C2265   1.410       .  A
C2265      C2266   1.400       .  A
C2265     Br2277   1.920       .  S
C2266      H2269   1.083       .  S
C2268      C2270   1.404       .  A
C2268      C2274   1.414       .  A
C2270      C2271   1.399       .  A
C2270      H2275   1.083       .  S
C2271      C2272   1.413       .  A
C2271     Br2279   1.920       .  S
C2272      C2273   1.405       .  A
C2273      C2274   1.403       .  A
C2273      H2276   1.084       .  S
C2274     Br2280   1.921       .  S
C2281      C2282   1.416       .  A
C2281      C2286   1.408       .  A
C2282      C2283   1.395       .  A
C2282     Br2298   1.915       .  S
C2283      C2284   1.398       .  A
C2283      H2287   1.084       .  S
C2284      C2288   1.480       .  S
C2284      C2285   1.407       .  A
C2285      C2286   1.403       .  A
C2285     Br2297   1.918       .  S
C2286      H2289   1.083       .  S
C2288      C2290   1.402       .  A
C2288      C2294   1.406       .  A
C2290      C2291   1.402       .  A
C2290      H2295   1.083       .  S
C2291      C2292   1.417       .  A
C2291     Br2299   1.923       .  S
C2292      C2293   1.408       .  A
C2293      C2294   1.394       .  A
C2293      H2296   1.083       .  S
C2294     Br2300   1.921       .  S
C2301      C2302   1.406       .  A
C2301      C2306   1.400       .  A
C2302      C2303   1.399       .  A
C2302     Br2318   1.918       .  S
C2303      C2304   1.403       .  A
C2303      H2307   1.083       .  S
C2304      C2308   1.473       .  S
C2304      C2305   1.406       .  A
C2305      C2306   1.395       .  A
C2305     Br2317   1.918       .  S
C2306      H2309   1.082       .  S
C2308      C2310   1.400       .  A
C2308      C2314   1.406       .  A
C2310      C2311   1.397       .  A
C2310      H2315   1.084       .  S
C2311      C2312   1.413       .  A
C2311     Br2319   1.921       .  S
C2312      C2313   1.406       .  A
C2313      C2314   1.399       .  A
C2313      H2316   1.084       .  S
C2314     Br2320   1.919       .  S
C2321      C2322   1.410       .  A
C2321      C2326   1.401       .  A
C2322      C2323   1.401       .  A
C2322     Br2338   1.917       .  S
C2323      C2324   1.402       .  A
C2323      H2327   1.083       .  S
C2324      C2328   1.480       .  S
C2324      C2325   1.408       .  A
C2325      C2326   1.399       .  A
C2325     Br2337   1.918       .  S
C2326      H2329   1.080       .  S
C2328      C2330   1.402       .  A
C2328      C2334   1.406       .  A
C2330      C2331   1.404       .  A
C2330      H2335   1.083       .  S
C2331      C2332   1.418       .  A
C2331     Br2339   1.922       .  S
C2332      C2333   1.406       .  A
C2333      C2334   1.398       .  A
C2333      H2336   1.083       .  S
C2334     Br2340   1.918       .  S
C2341      C2342   1.424       .  A
C2341      C2346   1.415       .  A
C2342      C2343   1.399       .  A
C2342     Br2358   1.925       .  S
C2343      C2344   1.397       .  A
C2343      H2347   1.084       .  S
C2344      C2348   1.475       .  S
C2344      C2345   1.401       .  A
C2345      C2346   1.399       .  A
C2345     Br2357   1.920       .  S
C2346      H2349   1.075       .  S
C2348      C2350   1.403       .  A
C2348      C2354   1.405       .  A
C2350      C2351   1.401       .  A
C2350      H2355   1.083       .  S
C2351      C2352   1.410       .  A
C2351     Br2359   1.919       .  S
C2352      C2353   1.405       .  A
C2353      C2354   1.397       .  A
C2353      H2356   1.082       .  S
C2354     Br2360   1.918       .  S
C2361      C2362   1.424       .  A
C2361      C2366   1.412       .  A
C2362      C2363   1.401       .  A
C2362     Br2378   1.916       .  S
C2363      C2364   1.399       .  A
C2363      H2367   1.084       .  S
C2364      C2368   1.486       .  S
C2364      C2365   1.406       .  A
C2365      C2366   1.401       .  A
C2365     Br2377   1.919       .  S
C2366      H2369   1.083       .  S
C2368      C2370   1.403       .  A
C2368      C2374   1.412       .  A
C2370      C2371   1.400       .  A
C2370      H2375   1.083       .  S
C2371      C2372   1.413       .  A
C2371     Br2379   1.920       .  S
C2372      C2373   1.403       .  A
C2373      C2374   1.400       .  A
C2373      H2376   1.083       .  S
C2374     Br2380   1.919       .  S
C2381      C2382   1.408       .  A
C2381      C2386   1.400       .  A
C2382      C2383   1.400       .  A
C2382     Br2398   1.918       .  S
C2383      C2384   1.402       .  A
C2383      H2387   1.083       .  S
C2384      C2388   1.479       .  S
C2384      C2385   1.410       .  A
C2385      C2386   1.400       .  A
C2385     Br2397   1.917       .  S
C2386      H2389   1.083       .  S
C2388      C2390   1.404       .  A
C2388      C2394   1.407       .  A
C2390      C2391   1.400       .  A
C2390      H2395   1.083       .  S
C2391      C2392   1.405       .  A
C2391     Br2399   1.918       .  S
C2392      C2393   1.404       .  A
C2393      C2394   1.401       .  A
C2393      H2396   1.083       .  S
C2394     Br2400   1.918       .  S
C2401      C2402   1.423   1_545  A
C2401      C2406   1.416       .  A
C2402      C2403   1.397       .  A
C2402     Br2418   1.923       .  S
C2403      C2404   1.395   1_565  A
C2403      H2407   1.084       .  S
C2404      C2408   1.471       .  S
C2404      C2405   1.401       .  A
C2405      C2406   1.397       .  A
C2405     Br2417   1.921       .  S
C2406      H2409   1.074       .  S
C2408      C2410   1.395   1_545  A
C2408      C2414   1.407       .  A
C2410      C2411   1.392       .  A
C2410      H2415   1.084       .  S
C2411      C2412   1.411   1_565  A
C2411     Br2419   1.908       .  S
C2412      C2413   1.406       .  A
C2413      C2414   1.402       .  A
C2413      H2416   1.083       .  S
C2414     Br2420   1.917       .  S
C2421      C2422   1.413       .  A
C2421      C2426   1.407   1_545  A
C2422      C2423   1.405       .  A
C2422     Br2438   1.920       .  S
C2423      C2424   1.407       .  A
C2423      H2427   1.083       .  S
C2424      C2428   1.490       .  S
C2424      C2425   1.409   1_545  A
C2425      C2426   1.398       .  A
C2425     Br2437   1.920       .  S
C2426      H2429   1.084       .  S
C2428      C2430   1.398   1_545  A
C2428      C2434   1.406       .  A
C2430      C2431   1.400       .  A
C2430      H2435   1.084       .  S
C2431      C2432   1.425   1_565  A
C2431     Br2439   1.920       .  S
C2432      C2433   1.418       .  A
C2433      C2434   1.405       .  A
C2433      H2436   1.074       .  S
C2434     Br2440   1.920       .  S
C2441      C2442   1.407       .  A
C2441      C2446   1.400       .  A
C2442      C2443   1.402       .  A
C2442     Br2458   1.916       .  S
C2443      C2444   1.404       .  A
C2443      H2447   1.083       .  S
C2444      C2448   1.475       .  S
C2444      C2445   1.405       .  A
C2445      C2446   1.395       .  A
C2445     Br2457   1.918       .  S
C2446      H2449   1.081       .  S
C2448      C2450   1.401       .  A
C2448      C2454   1.406       .  A
C2450      C2451   1.400       .  A
C2450      H2455   1.083       .  S
C2451      C2452   1.411       .  A
C2451     Br2459   1.920       .  S
C2452      C2453   1.404       .  A
C2453      C2454   1.399       .  A
C2453      H2456   1.083       .  S
C2454     Br2460   1.917       .  S
C2461      C2462   1.414       .  A
C2461      C2466   1.405       .  A
C2462      C2463   1.395       .  A
C2462     Br2478   1.919       .  S
C2463      C2464   1.398       .  A
C2463      H2467   1.084       .  S
C2464      C2468   1.469       .  S
C2464      C2465   1.404       .  A
C2465      C2466   1.399       .  A
C2465     Br2477   1.917       .  S
C2466      H2469   1.082       .  S
C2468      C2470   1.399       .  A
C2468      C2474   1.408       .  A
C2470      C2471   1.393       .  A
C2470      H2475   1.084       .  S
C2471      C2472   1.409       .  A
C2471     Br2479   1.921       .  S
C2472      C2473   1.401       .  A
C2473      C2474   1.398       .  A
C2473      H2476   1.083       .  S
C2474     Br2480   1.918       .  S
C2481      C2482   1.418       .  A
C2481      C2486   1.409       .  A
C2482      C2483   1.400       .  A
C2482     Br2498   1.922       .  S
C2483      C2484   1.401       .  A
C2483      H2487   1.084       .  S
C2484      C2488   1.483       .  S
C2484      C2485   1.408       .  A
C2485      C2486   1.400       .  A
C2485     Br2497   1.921       .  S
C2486      H2489   1.081       .  S
C2488      C2490   1.403       .  A
C2488      C2494   1.409       .  A
C2490      C2491   1.400       .  A
C2490      H2495   1.084       .  S
C2491      C2492   1.413       .  A
C2491     Br2499   1.921       .  S
C2492      C2493   1.404       .  A
C2493      C2494   1.398       .  A
C2493      H2496   1.082       .  S
C2494     Br2500   1.920       .  S
C2501      C2502   1.409       .  A
C2501      C2506   1.400       .  A
C2502      C2503   1.403       .  A
C2502     Br2518   1.919       .  S
C2503      C2504   1.408       .  A
C2503      H2507   1.083       .  S
C2504      C2508   1.497       .  S
C2504      C2505   1.415       .  A
C2505      C2506   1.401       .  A
C2505     Br2517   1.920       .  S
C2506      H2509   1.084       .  S
C2508      C2510   1.404       .  A
C2508      C2514   1.412       .  A
C2510      C2511   1.402       .  A
C2510      H2515   1.083       .  S
C2511      C2512   1.419       .  A
C2511     Br2519   1.920       .  S
C2512      C2513   1.407       .  A
C2513      C2514   1.402       .  A
C2513      H2516   1.080       .  S
C2514     Br2520   1.920       .  S
C2521      C2522   1.411       .  A
C2521      C2526   1.402       .  A
C2522      C2523   1.400       .  A
C2522     Br2538   1.919       .  S
C2523      C2524   1.401       .  A
C2523      H2527   1.083       .  S
C2524      C2528   1.484       .  S
C2524      C2525   1.411       .  A
C2525      C2526   1.404       .  A
C2525     Br2537   1.919       .  S
C2526      H2529   1.083       .  S
C2528      C2530   1.397       .  A
C2528      C2534   1.405       .  A
C2530      C2531   1.398       .  A
C2530      H2535   1.084       .  S
C2531      C2532   1.424       .  A
C2531     Br2539   1.922       .  S
C2532      C2533   1.416       .  A
C2533      C2534   1.403       .  A
C2533      H2536   1.076       .  S
C2534     Br2540   1.920       .  S
C2541      C2542   1.422       .  A
C2541      C2546   1.414       .  A
C2542      C2543   1.398       .  A
C2542     Br2558   1.918       .  S
C2543      C2544   1.397       .  A
C2543      H2547   1.084       .  S
C2544      C2548   1.470       .  S
C2544      C2545   1.400       .  A
C2545      C2546   1.392       .  A
C2545     Br2557   1.921       .  S
C2546      H2549   1.075       .  S
C2548      C2550   1.399       .  A
C2548      C2554   1.404       .  A
C2550      C2551   1.395       .  A
C2550      H2555   1.084       .  S
C2551      C2552   1.417       .  A
C2551     Br2559   1.921       .  S
C2552      C2553   1.409       .  A
C2553      C2554   1.396       .  A
C2553      H2556   1.083       .  S
C2554     Br2560   1.920       .  S
C2561      C2562   1.418       .  A
C2561      C2566   1.411       .  A
C2562      C2563   1.396       .  A
C2562     Br2578   1.913       .  S
C2563      C2564   1.398       .  A
C2563      H2567   1.084       .  S
C2564      C2568   1.477       .  S
C2564      C2565   1.405       .  A
C2565      C2566   1.399       .  A
C2565     Br2577   1.919       .  S
C2566      H2569   1.083       .  S
C2568      C2570   1.400       .  A
C2568      C2574   1.405       .  A
C2570      C2571   1.399       .  A
C2570      H2575   1.084       .  S
C2571      C2572   1.421       .  A
C2571     Br2579   1.924       .  S
C2572      C2573   1.409       .  A
C2573      C2574   1.395       .  A
C2573      H2576   1.083       .  S
C2574     Br2580   1.920       .  S
C2581      C2582   1.407       .  A
C2581      C2586   1.405       .  A
C2582      C2583   1.399       .  A
C2582     Br2598   1.916   1_565  S
C2583      C2584   1.404       .  A
C2583      H2587   1.083       .  S
C2584      C2588   1.493       .  S
C2584      C2585   1.416       .  A
C2585      C2586   1.407       .  A
C2585     Br2597   1.921       .  S
C2586      H2589   1.084       .  S
C2588      C2590   1.403       .  A
C2588      C2594   1.414       .  A
C2590      C2591   1.401       .  A
C2590      H2595   1.083       .  S
C2591      C2592   1.415       .  A
C2591     Br2599   1.922       .  S
C2592      C2593   1.404       .  A
C2593      C2594   1.403       .  A
C2593      H2596   1.081       .  S
C2594     Br2600   1.920       .  S
C2601      C2602   1.410       .  A
C2601      C2606   1.403       .  A
C2602      C2603   1.401       .  A
C2602     Br2618   1.919       .  S
C2603      C2604   1.404       .  A
C2603      H2607   1.083       .  S
C2604      C2608   1.480       .  S
C2604      C2605   1.409       .  A
C2605      C2606   1.398       .  A
C2605     Br2617   1.919       .  S
C2606      H2609   1.084       .  S
C2608      C2610   1.404       .  A
C2608      C2614   1.409       .  A
C2610      C2611   1.401       .  A
C2610      H2615   1.083       .  S
C2611      C2612   1.410       .  A
C2611     Br2619   1.919       .  S
C2612      C2613   1.402       .  A
C2613      C2614   1.398       .  A
C2613      H2616   1.084       .  S
C2614     Br2620   1.920       .  S
C2621      C2622   1.411       .  A
C2621      C2626   1.404       .  A
C2622      C2623   1.395       .  A
C2622     Br2638   1.914       .  S
C2623      C2624   1.399       .  A
C2623      H2627   1.084       .  S
C2624      C2628   1.472       .  S
C2624      C2625   1.407       .  A
C2625      C2626   1.397       .  A
C2625     Br2637   1.918       .  S
C2626      H2629   1.084       .  S
C2628      C2630   1.397       .  A
C2628      C2634   1.406       .  A
C2630      C2631   1.394       .  A
C2630      H2635   1.084       .  S
C2631      C2632   1.419       .  A
C2631     Br2639   1.925       .  S
C2632      C2633   1.407       .  A
C2633      C2634   1.399       .  A
C2633      H2636   1.083       .  S
C2634     Br2640   1.918       .  S
