geometry optimzed in LAMMPS
_audit_creation_date              2020-11-30 
_audit_creation_method            'lammps2cif' 
_symmetry_space_group_name_H-M    'P1' 
_symmetry_Int_Tables_number       1 
_symmetry_cell_setting            triclinic 
loop_ 
_symmetry_equiv_pos_as_xyz 
  x,y,z 
_cell_length_a                    32.7004058 
_cell_length_b                    37.50482455811704 
_cell_length_c                    35.05392452010079 
_cell_angle_alpha                 93.97502634371594 
_cell_angle_beta                  89.91965282445227 
_cell_angle_gamma                 90.15432648338145 
loop_ 
_atom_site_label 
_atom_site_type_symbol 
_atom_site_fract_x 
_atom_site_fract_y 
_atom_site_fract_z 
_atom_site_charge 
N1          N  0.49902884  0.34904781  0.75547312    -0.02900
C2          C  0.50391372  0.31388534  0.76156227    -0.00400
C3          C  0.52343527  0.31095846  0.79635674    -0.23200
C4          C  0.53166649  0.34504504  0.81132187    -0.23400
C5          C  0.51642587  0.36775844  0.78560261    -0.00500
H6          H  0.53009392  0.28661692  0.80998970     0.13300
H7          H  0.54680052  0.35246698  0.83815163     0.13400
N8          N  0.92577552  0.56113162  0.93883026    -0.26800
N9          N  0.95947722  0.57594969  0.92636399    -0.34600
C10         C  0.98876445  0.57449104  0.95315957     0.01600
C11         C  0.97258866  0.55783006  0.98388514     0.07600
C12         C  0.93259284  0.54971108  0.97378377    -0.05500
H13         H  0.01964262  0.58436675  0.95023216     0.08300
H14         H  0.91013492  0.53631873  0.99044851     0.09500
Cu15       Cu  0.96312347  0.59609745  0.87271630     0.44200
Cu16       Cu  0.87259522  0.55734201  0.90704473     0.42000
Cu17       Cu  0.87447580  0.58313732  0.80856515     0.43900
N18         N  0.96078375  0.61298847  0.81751351    -0.34100
N19         N  0.92957055  0.60746846  0.79369816    -0.28400
C20         C  0.93937207  0.62055917  0.75994631    -0.04500
C21         C  0.97787851  0.63580998  0.76341818     0.07700
C22         C  0.99091721  0.62999133  0.79980929     0.01500
H23         H  0.92016939  0.61878789  0.73478254     0.09200
H24         H  0.02051706  0.63660095  0.81213458     0.08200
N25         N  0.82217820  0.56414466  0.83542982    -0.35600
N26         N  0.82198695  0.55657312  0.87175135    -0.27800
C27         C  0.78376336  0.54849295  0.88217053    -0.03000
C28         C  0.75849203  0.55036822  0.85093720     0.05600
C29         C  0.78375354  0.56019061  0.82158287     0.03700
H30         H  0.77502737  0.54167058  0.91055045     0.08800
H31         H  0.77462629  0.56542546  0.79285421     0.07600
N32         N  0.54455830  0.54212126  0.93694055    -0.26800
N33         N  0.51137253  0.52551829  0.92348766    -0.34600
C34         C  0.48073582  0.53112955  0.94878038     0.01600
C35         C  0.49540956  0.55226540  0.97971299     0.07600
C36         C  0.53598872  0.55875380  0.97126883    -0.05500
H37         H  0.45036255  0.51988077  0.94528847     0.08300
H38         H  0.55781712  0.57402879  0.98891432     0.09500
Cu39       Cu  0.51072247  0.49394800  0.87271162     0.44200
Cu40       Cu  0.59971651  0.54053292  0.90760838     0.42000
Cu41       Cu  0.60350105  0.49238910  0.81424997     0.43900
N42         N  0.52100639  0.45790574  0.82635390    -0.34100
N43         N  0.55452042  0.45700796  0.80513436    -0.28400
C44         C  0.55493263  0.42609378  0.78318830    -0.04500
C45         C  0.52000878  0.40681945  0.79073051     0.07700
C46         C  0.49948513  0.42773784  0.81843959     0.01500
H47         H  0.58106443  0.41635809  0.76664465     0.09200
H48         H  0.47356859  0.41963563  0.83504041     0.08200
N49         N  0.65209152  0.52283108  0.83748366    -0.35600
N50         N  0.65088368  0.53851119  0.87245921    -0.27800
C51         C  0.68806772  0.55170835  0.88162854    -0.03000
C52         C  0.71393374  0.54458924  0.85087148     0.05600
C53         C  0.69015789  0.52634196  0.82321560     0.03700
H54         H  0.69597710  0.56474821  0.90914138     0.08800
H55         H  0.70044506  0.51437542  0.79592085     0.07600
N56         N  0.00276066  0.64837406  0.73332033    -0.02900
C57         C  0.01127505  0.68283408  0.72606458    -0.00400
C58         C  0.03996291  0.68326853  0.69690257    -0.23200
C59         C  0.05033196  0.64843692  0.68697055    -0.23400
C60         C  0.02720873  0.62767565  0.70977776    -0.00500
H61         H  0.05124753  0.70638349  0.68330304     0.13300
H62         H  0.07165402  0.63916823  0.66483502     0.13400
N63         N  0.04631407  0.45927770  0.55278464    -0.26800
N64         N  0.01319635  0.47436588  0.56826653    -0.34600
C65         C  0.98216350  0.47023341  0.54302258     0.01600
C66         C  0.99657653  0.45178688  0.51002704     0.07600
C67         C  0.03735864  0.44522441  0.51738547    -0.05500
H68         H  0.95179610  0.48102869  0.54778070     0.08300
H69         H  0.05924572  0.43199904  0.49808028     0.09500
Cu70       Cu  0.01428056  0.50318071  0.62149471     0.44200
Cu71       Cu  0.10257395  0.46018711  0.58019892     0.42000
Cu72       Cu  0.11132808  0.50541468  0.67429757     0.43900
N73         N  0.02689846  0.53778042  0.66937177    -0.34100
N74         N  0.06202991  0.53863441  0.68808373    -0.28400
C75         C  0.06404670  0.56904983  0.71066312    -0.04500
C76         C  0.02856580  0.58840356  0.70639195     0.07700
C77         C  0.00578798  0.56762260  0.67996541     0.01500
H78         H  0.09172532  0.57885602  0.72471032     0.09200
H79         H  0.97894051  0.57621274  0.66513534     0.08200
N80         N  0.15867824  0.47641746  0.64787409    -0.35600
N81         N  0.15551975  0.46120832  0.61282226    -0.27800
C82         C  0.19183428  0.44725284  0.60207800    -0.03000
C83         C  0.21914676  0.45366784  0.63181868     0.05600
C84         C  0.19715095  0.47212368  0.66055333     0.03700
H85         H  0.19798976  0.43376279  0.57438885     0.08800
H86         H  0.20863689  0.48294907  0.68789225     0.07600
N87         N  0.42703307  0.42033562  0.54166252    -0.26800
N88         N  0.46218995  0.41031264  0.55592918    -0.34600
C89         C  0.49194340  0.41464310  0.53008549     0.01600
C90         C  0.47443603  0.42827141  0.49823532     0.07600
C91         C  0.43328813  0.43151615  0.50656248    -0.05500
H92         H  0.52402625  0.40948240  0.53471252     0.08300
H93         H  0.40976704  0.44220417  0.48895920     0.09500
Cu94       Cu  0.46721284  0.39457209  0.61124244     0.44200
Cu95       Cu  0.37324321  0.42208079  0.57220786     0.42000
Cu96       Cu  0.37990442  0.41810145  0.67455420     0.43900
N97         N  0.46384474  0.38334195  0.66824074    -0.34100
N98         N  0.43348160  0.39345706  0.69164635    -0.28400
C99         C  0.44171817  0.38270244  0.72668181    -0.04500
C100        C  0.47834061  0.36442871  0.72459871     0.07700
C101        C  0.49179468  0.36534591  0.68748029     0.01500
H102        H  0.42209989  0.38703528  0.75143178     0.09200
H103        H  0.51983202  0.35421584  0.67542876     0.08200
N104        N  0.32669002  0.43218870  0.64637802    -0.35600
N105        N  0.32448366  0.43128864  0.60866715    -0.27800
C106        C  0.28620187  0.43872502  0.59823244    -0.03000
C107        C  0.26297923  0.44503502  0.63083159     0.05600
C108        C  0.28953303  0.44085751  0.66101477     0.03700
H109        H  0.27619624  0.43989823  0.56893970     0.08800
H110        H  0.28216000  0.44296130  0.69118093     0.07600
N111        N  0.99265009  0.34681115  0.20832149    -0.02900
C112        C  0.99777091  0.31202915  0.19486109    -0.00400
C113        C  0.02350798  0.31099742  0.16320972    -0.23200
C114        C  0.03356509  0.34560375  0.15671136    -0.23400
C115        C  0.01429819  0.36692977  0.18472031    -0.00500
H116        H  0.03542249  0.28756628  0.14727141     0.13300
H117        H  0.05348175  0.35425137  0.13444014     0.13400
N118        N  0.42450310  0.56928053  0.05881536    -0.26800
N119        N  0.45832396  0.58290283  0.07449593    -0.34600
C120        C  0.48864926  0.57999034  0.04843443     0.01600
C121        C  0.47302393  0.56354427  0.01493793     0.07600
C122        C  0.43228199  0.55722618  0.02255882    -0.05500
H123        H  0.52000451  0.58803437  0.05392571     0.08300
H124        H  0.41014885  0.54385053  0.00359832     0.09500
Cu125      Cu  0.46147695  0.60171173  0.13168165     0.44200
Cu126      Cu  0.37028528  0.56467401  0.08826229     0.42000
Cu127      Cu  0.37334388  0.57758944  0.19049476     0.43900
N128        N  0.45589171  0.61544254  0.19003412    -0.34100
N129        N  0.42489873  0.60528742  0.21122296    -0.28400
C130        C  0.43129563  0.61721553  0.24777061    -0.04500
C131        C  0.46733661  0.63640723  0.24934776     0.07700
C132        C  0.48262045  0.63455150  0.21257531     0.01500
H133        H  0.41118911  0.61234100  0.27139180     0.09200
H134        H  0.51130810  0.64532660  0.20308238     0.08200
N135        N  0.32137980  0.55993745  0.16056485    -0.35600
N136        N  0.32023657  0.55742087  0.12278763    -0.27800
C137        C  0.28195082  0.54977755  0.11116475    -0.03000
C138        C  0.25779074  0.54682358  0.14308542     0.05600
C139        C  0.28368817  0.55320743  0.17405473     0.03700
H140        H  0.27237798  0.54683174  0.08157702     0.08800
H141        H  0.27536240  0.55466595  0.20400248     0.07600
N142        N  0.04165844  0.54290948  0.06262948    -0.26800
N143        N  0.00863031  0.52617997  0.07393004    -0.34600
C144        C  0.97869387  0.52961440  0.04814062     0.01600
C145        C  0.99372788  0.54935506  0.01921704     0.07600
C146        C  0.03371583  0.55739638  0.02938911    -0.05500
H147        H  0.94872990  0.51749688  0.04964145     0.08300
H148        H  0.05579936  0.57184389  0.01334466     0.09500
Cu149      Cu  0.00788068  0.49575941  0.12136183     0.44200
Cu150      Cu  0.09675016  0.54277205  0.09152686     0.42000
Cu151      Cu  0.10322132  0.48981606  0.17400191     0.43900
N152        N  0.01862097  0.45833774  0.16131961    -0.34100
N153        N  0.05348411  0.45584957  0.18000463    -0.28400
C154        C  0.05426970  0.42433562  0.19614508    -0.04500
C155        C  0.01812446  0.40614731  0.18771767     0.07700
C156        C  0.99645255  0.42853994  0.16537710     0.01500
H157        H  0.08127580  0.41340174  0.20873228     0.09200
H158        H  0.96932825  0.42146212  0.14887055     0.08200
N159        N  0.15163193  0.51989848  0.15467004    -0.35600
N160        N  0.14925675  0.53778901  0.12353231    -0.27800
C161        C  0.18638095  0.55063946  0.11547209    -0.03000
C162        C  0.21339571  0.54085897  0.14307091     0.05600
C163        C  0.19043126  0.52153260  0.16767913     0.03700
H164        H  0.19333501  0.56543709  0.09083471     0.08800
H165        H  0.20152626  0.50795842  0.19185182     0.05600
N166        N  0.48724478  0.65043138  0.28359182    -0.02900
C167        C  0.49086228  0.68513507  0.29713405    -0.00400
C168        C  0.50872432  0.68678896  0.33303939    -0.23200
C169        C  0.51618078  0.65217702  0.34170394    -0.23400
C170        C  0.50276270  0.63050854  0.31083003    -0.00500
H171        H  0.51717067  0.71070639  0.35031122     0.13300
H172        H  0.53144498  0.64381472  0.36694721     0.13400
N173        N  0.92635345  0.44014263  0.42890213    -0.26800
N174        N  0.96024631  0.42687342  0.41301691    -0.34600
C175        C  0.99013827  0.42833411  0.43953835     0.01600
C176        C  0.97436423  0.44340763  0.47370092     0.07600
C177        C  0.93381557  0.45052833  0.46582330    -0.05500
H178        H  0.02124429  0.41959887  0.43416000     0.08300
H179        H  0.91145471  0.46275477  0.48534968     0.09500
Cu180      Cu  0.96377273  0.40807402  0.35547586     0.44200
Cu181      Cu  0.87175440  0.44397997  0.39898379     0.42000
Cu182      Cu  0.87066389  0.41295878  0.29825955     0.43900
N183        N  0.95852614  0.38802773  0.29843903    -0.34100
N184        N  0.92438886  0.38873639  0.27816007    -0.28400
C185        C  0.93096120  0.37252790  0.24314625    -0.04500
C186        C  0.97090640  0.36080210  0.24166333     0.07700
C187        C  0.98792276  0.37184544  0.27660230     0.01500
H188        H  0.90873620  0.37040118  0.22027228     0.09200
H189        H  0.01927351  0.36844445  0.28542591     0.08200
N190        N  0.82071345  0.43659458  0.32660013    -0.35600
N191        N  0.82083301  0.44628069  0.36362852    -0.27800
C192        C  0.78308965  0.45713380  0.37417523    -0.03000
C193        C  0.75826253  0.45493528  0.34221954     0.05600
C194        C  0.78302373  0.44184906  0.31248152     0.03700
H195        H  0.77418775  0.46551503  0.40315264     0.08800
H196        H  0.77383010  0.43481759  0.28328312     0.07600
N197        N  0.54285423  0.45060738  0.42160673    -0.26800
N198        N  0.50866480  0.46541556  0.41053467    -0.34600
C199        C  0.47885389  0.45910375  0.43564722     0.01600
C200        C  0.49528202  0.43950750  0.46391535     0.07600
C201        C  0.53592022  0.43460516  0.45415273    -0.05500
H202        H  0.44797820  0.46919930  0.43417931     0.08300
H203        H  0.55893960  0.42100695  0.46982024     0.09500
Cu204      Cu  0.50631132  0.49736032  0.36473938     0.44200
Cu205      Cu  0.59738557  0.45469211  0.39269961     0.42000
Cu206      Cu  0.60254013  0.51247403  0.31431626     0.43900
N207        N  0.51530461  0.53803172  0.32855523    -0.34100
N208        N  0.55003774  0.54400046  0.31061912    -0.28400
C209        C  0.54818320  0.57663069  0.29691148    -0.04500
C210        C  0.51062617  0.59182368  0.30650785     0.07700
C211        C  0.49083222  0.56663479  0.32678721     0.01500
H212        H  0.57408518  0.59012995  0.28510558     0.09200
H213        H  0.46296208  0.57065360  0.34318036     0.08200
N214        N  0.65195183  0.48193083  0.33146427    -0.35600
N215        N  0.64956121  0.46205303  0.36112732    -0.27800
C216        C  0.68661801  0.44889673  0.36842842    -0.03000
C217        C  0.71379268  0.46045958  0.34186430     0.05600
C218        C  0.69093649  0.48128258  0.31862710     0.03700
H219        H  0.69344855  0.43272853  0.39199638     0.08800
H220        H  0.70223887  0.49643962  0.29564283     0.07600
N221        N  0.98198296  0.14400552  0.25245834    -0.02900
C222        C  0.99357607  0.17846114  0.26193545    -0.00400
C223        C  0.02656453  0.17882737  0.28681769    -0.23200
C224        C  0.03533648  0.14401631  0.29304693    -0.23400
C225        C  0.00782207  0.12332011  0.27155187    -0.00500
H226        H  0.04346992  0.20197617  0.29828940     0.13300
H227        H  0.05917153  0.13476142  0.31131009     0.13400
N228        N  0.01596070  0.98379522  0.42983024    -0.26800
N229        N  0.98432055  0.99833579  0.41341468    -0.34600
C230        C  0.95476093  0.00488412  0.43964747     0.01600
C231        C  0.96840485  0.99389668  0.47426316     0.07600
C232        C  0.00730082  0.98058118  0.46700317    -0.05500
H233        H  0.92584564  0.01744878  0.43405429     0.08300
H234        H  0.02803640  0.96986538  0.48730612     0.09500
Cu235      Cu  0.98453299  0.01229368  0.35726057     0.44200
Cu236      Cu  0.07008965  0.97104549  0.40098905     0.42000
Cu237      Cu  0.07845796  0.99747631  0.30368845     0.43900
N238        N  0.99828878  0.03767315  0.30823423    -0.34100
N239        N  0.03334972  0.03355839  0.28966528    -0.28400
C240        C  0.03875558  0.06157693  0.26819389    -0.04500
C241        C  0.00545713  0.08427206  0.27309597     0.07700
C242        C  0.98039107  0.06797544  0.29851836     0.01500
H243        H  0.06746727  0.06779411  0.25474550     0.09200
H244        H  0.95496076  0.08045617  0.31401388     0.08200
N245        N  0.12408579  0.96969211  0.33061072    -0.35600
N246        N  0.12144378  0.96183095  0.36675274    -0.27800
C247        C  0.15747526  0.94871966  0.37763831    -0.03000
C248        C  0.18397166  0.94768270  0.34682157     0.05600
C249        C  0.16180194  0.96105064  0.31736580     0.03700
H250        H  0.16423371  0.94135390  0.40625400     0.08800
H251        H  0.17307590  0.96633103  0.28927385     0.07600
N252        N  0.39945125  0.95732056  0.42522604    -0.26800
N253        N  0.43499175  0.94818182  0.40952432    -0.34600
C254        C  0.46521929  0.96341514  0.43111543     0.01600
C255        C  0.44768625  0.98325108  0.46169295     0.07600
C256        C  0.40596727  0.97870475  0.45703195    -0.05500
H257        H  0.49745892  0.96091145  0.42453714     0.08300
H258        H  0.38201393  0.99062766  0.47496673     0.09500
Cu259      Cu  0.43940584  0.91747786  0.35794029     0.44200
Cu260      Cu  0.34380580  0.94293545  0.40066109     0.42000
Cu261      Cu  0.34380911  0.90222427  0.30392333     0.43900
N262        N  0.43575386  0.88905985  0.30492181    -0.34100
N263        N  0.40136277  0.88342918  0.28537068    -0.28400
C264        C  0.41016981  0.86504987  0.25196737    -0.04500
C265        C  0.45178469  0.85877624  0.25087656     0.07700
C266        C  0.46728987  0.87464323  0.28443759     0.01500
H267        H  0.38817666  0.85775361  0.22974086     0.09200
H268        H  0.49905130  0.87639901  0.29294945     0.08200
N269        N  0.29114761  0.92238867  0.33185400    -0.35600
N270        N  0.29151520  0.93507465  0.36802089    -0.27800
C271        C  0.25354415  0.94507684  0.37863835    -0.03000
C272        C  0.22790098  0.93908167  0.34761933     0.05600
C273        C  0.25268513  0.92480765  0.31826784     0.03700
H274        H  0.24552091  0.95717621  0.40655624     0.08800
H275        H  0.24342703  0.91663659  0.28935059     0.07600
N276        N  0.47461652  0.84401209  0.21859537    -0.02900
C277        C  0.48073557  0.80888859  0.20847592    -0.00400
C278        C  0.49994703  0.80500984  0.17326641    -0.23200
C279        C  0.50565636  0.83884866  0.16133609    -0.23400
C280        C  0.49009714  0.86222489  0.18984645    -0.00500
H281        H  0.51112425  0.78039530  0.15906398     0.13300
H282        H  0.52101510  0.84574694  0.13547870     0.13400
N283        N  0.89921936  0.02366846  0.05416143    -0.26800
N284        N  0.93480434  0.03287625  0.06961184    -0.34600
C285        C  0.96491297  0.01821697  0.04748614     0.01600
C286        C  0.94720462  0.99869284  0.01671320     0.07600
C287        C  0.90547940  0.00273665  0.02195726    -0.05500
H288        H  0.99721746  0.02149486  0.05338831     0.08300
H289        H  0.88141923  0.99141274  0.00371436     0.09500
Cu290      Cu  0.93837974  0.06473734  0.12048501     0.44200
Cu291      Cu  0.84460047  0.03975319  0.07938886     0.42000
Cu292      Cu  0.84444916  0.08247216  0.17716859     0.43900
N293        N  0.93579396  0.09660957  0.17141264    -0.34100
N294        N  0.90270106  0.10311713  0.19265912    -0.28400
C295        C  0.91370584  0.12355992  0.22438419    -0.04500
C296        C  0.95529839  0.13058563  0.22215732     0.07700
C297        C  0.96829029  0.11251745  0.18879154     0.01500
H298        H  0.89344481  0.13136030  0.24789689     0.09200
H299        H  0.99947758  0.10982164  0.17869437     0.08200
N300        N  0.79183739  0.06224678  0.14821874    -0.35600
N301        N  0.79271631  0.04973932  0.11195455    -0.27800
C302        C  0.75478957  0.04065239  0.10042860    -0.03000
C303        C  0.72843246  0.04679727  0.13082541     0.05600
C304        C  0.75282304  0.06037289  0.16090712     0.03700
H305        H  0.74725463  0.02885128  0.07226254     0.08800
H306        H  0.74289590  0.06859228  0.18962328     0.07600
N307        N  0.51870719  0.01186128  0.03953021    -0.26800
N308        N  0.48633529  0.99776519  0.05535286    -0.34600
C309        C  0.45548872  0.99562166  0.03014548     0.01600
C310        C  0.46887142  0.00917855  0.99671015     0.07600
C311        C  0.50913587  0.01936543  0.00355761    -0.05500
H312        H  0.42574791  0.98435389  0.03564675     0.08300
H313        H  0.53004608  0.03078419  0.98377017     0.09500
Cu314      Cu  0.48619717  0.97893979  0.10904966     0.44200
Cu315      Cu  0.57376419  0.01854530  0.06882617     0.42000
Cu316      Cu  0.57745842  0.98400573  0.16515027     0.43900
N317        N  0.49453324  0.94928457  0.15556657    -0.34100
N318        N  0.52852027  0.94985050  0.17589333    -0.28400
C319        C  0.52871723  0.92084049  0.19655686    -0.04500
C320        C  0.49310451  0.90128905  0.18898030     0.07700
C321        C  0.47246223  0.92025902  0.16272193     0.01500
H322        H  0.55527905  0.91184238  0.21151878     0.09200
H323        H  0.44661343  0.91072139  0.14563743     0.08200
N324        N  0.62401191  0.01421437  0.14163299    -0.35600
N325        N  0.62300136  0.02475589  0.10633909    -0.27800
C326        C  0.65927147  0.03936350  0.09823952    -0.03000
C327        C  0.68427092  0.03866831  0.12993460     0.05600
C328        C  0.66094908  0.02262383  0.15702879     0.03700
H329        H  0.66731310  0.04886009  0.07074973     0.08800
H330        H  0.67105640  0.01529612  0.18479043     0.07600
N331        N  0.42700307  0.15203305  0.72573041    -0.02900
C332        C  0.41619941  0.18711722  0.72934205    -0.00400
C333        C  0.38014197  0.19096780  0.75009332    -0.23200
C334        C  0.36781429  0.15741665  0.75836957    -0.23400
C335        C  0.39694462  0.13413020  0.74299248    -0.00500
H336        H  0.36558046  0.21568230  0.76029614     0.13300
H337        H  0.34188049  0.15093584  0.77584226     0.13400
N338        N  0.39463313  0.00473911  0.91953891    -0.26800
N339        N  0.42509439  0.02086823  0.90281721    -0.34600
C340        C  0.45648018  0.02508909  0.92757921     0.01600
C341        C  0.44500947  0.01084715  0.96137798     0.07600
C342        C  0.40567177  0.99819826  0.95523090    -0.05500
H343        H  0.48529803  0.03774599  0.92148109     0.08300
H344        H  0.38633858  0.98523966  0.97520268     0.09500
Cu345      Cu  0.42113602  0.03714234  0.84758524     0.44200
Cu346      Cu  0.33917291  0.99266263  0.89369416     0.42000
Cu347      Cu  0.32519630  0.01644529  0.79715405     0.43900
N348        N  0.40558330  0.05673733  0.79563011    -0.34100
N349        N  0.37040022  0.05000088  0.77798157    -0.28400
C350        C  0.36515711  0.07387514  0.75154476    -0.04500
C351        C  0.39864934  0.09656267  0.75219857     0.07700
C352        C  0.42374793  0.08464068  0.78034889     0.01500
H353        H  0.33657616  0.07769292  0.73686996     0.09200
H354        H  0.44976446  0.09885114  0.79303543     0.08200
N355        N  0.28079553  0.99018164  0.82722555    -0.35600
N356        N  0.28588973  0.98288426  0.86325661    -0.27800
C357        C  0.25091807  0.96966590  0.87658777    -0.03000
C358        C  0.22244798  0.96815414  0.84748892     0.05600
C359        C  0.24234619  0.98121864  0.81644996     0.03700
H360        H  0.24636087  0.96235456  0.90561395     0.08800
H361        H  0.22927073  0.98564504  0.78884668     0.07600
N362        N  0.01577450  0.95831689  0.94391186    -0.26800
N363        N  0.98022755  0.94650896  0.93030658    -0.34600
C364        C  0.95039424  0.95835600  0.95447903     0.01600
C365        C  0.96815787  0.97858375  0.98471373     0.07600
C366        C  0.00967671  0.97787475  0.97707505    -0.05500
H367        H  0.91811344  0.95342948  0.94983700     0.08300
H368        H  0.03356323  0.99166793  0.99359004     0.09500
Cu369      Cu  0.97505946  0.91724368  0.87772087     0.44200
Cu370      Cu  0.06981411  0.95065035  0.91381765     0.42000
Cu371      Cu  0.06286390  0.91870249  0.81296363     0.43900
N372        N  0.97630958  0.89195615  0.82280720    -0.34100
N373        N  0.00738857  0.89360665  0.79867181    -0.28400
C374        C  0.99686673  0.87662768  0.76490918    -0.04500
C375        C  0.95793776  0.86281201  0.76862907     0.07700
C376        C  0.94546775  0.87352344  0.80524302     0.01500
H377        H  0.01577293  0.87504737  0.73950328     0.09200
H378        H  0.91564813  0.86952614  0.81766030     0.08200
N379        N  0.11577264  0.94000726  0.83881373    -0.35600
N380        N  0.11831699  0.94929483  0.87585502    -0.27800
C381        C  0.15656641  0.96019017  0.88424275    -0.03000
C382        C  0.17918977  0.95822034  0.85093260     0.05600
C383        C  0.15246495  0.94545529  0.82254673     0.03700
H384        H  0.16681719  0.96980071  0.91244874     0.08800
H385        H  0.15930355  0.94000486  0.79250603     0.07600
N386        N  0.93208865  0.84781820  0.73852494    -0.02900
C387        C  0.92281313  0.81268431  0.73013565    -0.00400
C388        C  0.89201031  0.80998273  0.70289783    -0.23200
C389        C  0.88139963  0.84409741  0.69518922    -0.23400
C390        C  0.90621398  0.86675162  0.71750677    -0.00500
H391        H  0.87967877  0.78578563  0.68868522     0.13300
H392        H  0.85907687  0.85157222  0.67443799     0.13400
N393        N  0.89715389  0.00438582  0.55414327    -0.26800
N394        N  0.92888034  0.99081753  0.57134665    -0.34600
C395        C  0.95948729  0.98560308  0.54584746     0.01600
C396        C  0.94626846  0.99644967  0.51097836     0.07600
C397        C  0.90667950  0.00832886  0.51734953    -0.05500
H398        H  0.98862622  0.97366213  0.55193841     0.08300
H399        H  0.88582622  0.01806653  0.49653643     0.09500
Cu400      Cu  0.92651577  0.97592855  0.62731017     0.44200
Cu401      Cu  0.84132781  0.01396011  0.58072779     0.42000
Cu402      Cu  0.82859334  0.98687507  0.67705018     0.43900
N403        N  0.91176703  0.95087929  0.67657287    -0.34100
N404        N  0.87585376  0.95387888  0.69388051    -0.28400
C405        C  0.87170497  0.92675958  0.71681728    -0.04500
C406        C  0.90657615  0.90571411  0.71420864     0.07700
C407        C  0.93128394  0.92212066  0.68848972     0.01500
H408        H  0.84304227  0.91968500  0.72981979     0.09200
H409        H  0.95810431  0.91047542  0.67451009     0.08200
N410        N  0.78290049  0.01251647  0.64754238    -0.35600
N411        N  0.78764749  0.02071868  0.61170371    -0.27800
C412        C  0.75202668  0.03266007  0.59857944    -0.03000
C413        C  0.72339696  0.03253837  0.62755238     0.05600
C414        C  0.74396758  0.01976151  0.65836112     0.03700
H415        H  0.74713429  0.04020142  0.56970069     0.08800
H416        H  0.73101622  0.01418452  0.68573925     0.07600
N417        N  0.51597897  0.02970320  0.53087424    -0.26800
N418        N  0.48013335  0.04102291  0.54410224    -0.34600
C419        C  0.45046250  0.02677867  0.52123024     0.01600
C420        C  0.46857283  0.00540915  0.49217396     0.07600
C421        C  0.51018720  0.00798127  0.49910952    -0.05500
H422        H  0.41808732  0.03099186  0.52597718     0.08300
H423        H  0.53435649  0.99411115  0.48310937     0.09500
Cu424      Cu  0.47420982  0.07306556  0.59444338     0.44200
Cu425      Cu  0.56987950  0.04131902  0.56023720     0.42000
Cu426      Cu  0.56153000  0.07856842  0.65969408     0.43900
N427        N  0.47454676  0.10238462  0.64686585    -0.34100
N428        N  0.50522923  0.10352394  0.67157640    -0.28400
C429        C  0.49363950  0.12310202  0.70356165    -0.04500
C430        C  0.45447157  0.13561499  0.69778392     0.07700
C431        C  0.44304999  0.12143972  0.66206535     0.01500
H432        H  0.51188757  0.12710575  0.72921890     0.09200
H433        H  0.41340668  0.12354526  0.64876084     0.08200
N434        N  0.61530741  0.05716133  0.63505101    -0.35600
N435        N  0.61826908  0.04623408  0.59841337    -0.27800
C436        C  0.65695126  0.03626742  0.59059909    -0.03000
C437        C  0.67951511  0.04044440  0.62385999     0.05600
C438        C  0.65220703  0.05361474  0.65162951     0.03700
H439        H  0.66762514  0.02583053  0.56281127     0.08800
H440        H  0.65885830  0.06083410  0.68139327     0.07600
C441        C  0.51914994  0.74010578  0.27275704    -0.25800
C442        C  0.48526814  0.71724760  0.27507708    -0.13900
C443        C  0.44775086  0.72687167  0.25829490     0.36800
C444        C  0.44612948  0.75773967  0.23762725    -0.25200
C445        C  0.48046731  0.77991130  0.23491333    -0.14500
C446        C  0.51702278  0.77140782  0.25325971     0.37900
N447        N  0.55230219  0.79414536  0.25089380    -0.88700
H448        H  0.54774414  0.73327137  0.28601188     0.19000
H449        H  0.41794767  0.76443610  0.22358273     0.19000
N450        N  0.41052304  0.70724092  0.26297149    -0.87800
H451        H  0.57703388  0.78390512  0.26547498     0.36300
H452        H  0.54518504  0.81882186  0.26503363     0.41400
H453        H  0.41413770  0.68735456  0.28205378     0.41100
H454        H  0.40269306  0.69484760  0.23634454     0.35900
C455        C  0.98111926  0.27710760  0.25207645    -0.25800
C456        C  0.98315471  0.27872801  0.21225601    -0.13900
C457        C  0.97692885  0.24656166  0.18908204     0.36800
C458        C  0.97636353  0.21349294  0.20589334    -0.25200
C459        C  0.97894081  0.21186670  0.24561341    -0.14500
C460        C  0.97741933  0.24439190  0.26886748     0.37900
N461        N  0.97330072  0.24520549  0.30976789    -0.88700
H462        H  0.98476083  0.30083461  0.27087013     0.19000
H463        H  0.97687468  0.18910347  0.18757346     0.19000
N464        N  0.97287238  0.24741321  0.14832407    -0.87800
H465        H  0.00096721  0.25419565  0.32195241     0.36300
H466        H  0.96709137  0.21988132  0.31898718     0.41400
H467        H  0.94623445  0.26161534  0.14308522     0.41100
H468        H  0.96878589  0.22164023  0.13550409     0.35900
C469        C  0.98796390  0.78107473  0.74471955    -0.25800
C470        C  0.94516832  0.78070665  0.74249828    -0.13900
C471        C  0.92446860  0.74771988  0.74515198     0.36800
C472        C  0.94684522  0.71563444  0.74351631    -0.25200
C473        C  0.98965083  0.71581386  0.74140973    -0.14500
C474        C  0.01031198  0.74924816  0.74549321     0.37900
N475        N  0.05396133  0.75194743  0.74963190    -0.88700
H476        H  0.00462875  0.80585104  0.74341022     0.19000
H477        H  0.93045040  0.69054068  0.74078030     0.19000
N478        N  0.88058121  0.74678048  0.74741437    -0.87800
H479        H  0.06598595  0.76125829  0.72452297     0.36300
H480        H  0.06713602  0.72719411  0.75387624     0.41400
H481        H  0.87210972  0.76063039  0.77310330     0.41100
H482        H  0.87008728  0.72054003  0.74881191     0.35900
C483        C  0.44665071  0.28330771  0.72456266    -0.25800
C484        C  0.48680419  0.28229970  0.73854787    -0.13900
C485        C  0.50702009  0.24876123  0.73736566     0.36800
C486        C  0.48418292  0.21724532  0.73074804    -0.25200
C487        C  0.44253576  0.21828385  0.72154714    -0.14500
C488        C  0.42501486  0.25174206  0.71442725     0.37900
N489        N  0.38493598  0.25470279  0.69817439    -0.88700
H490        H  0.43059105  0.30836321  0.72385294     0.19000
H491        H  0.49869813  0.19211170  0.73554314     0.19000
N492        N  0.55007224  0.24565913  0.74485225    -0.87800
H493        H  0.36554812  0.26617750  0.71928250     0.36300
H494        H  0.37313355  0.22965985  0.68889458     0.41400
H495        H  0.56438026  0.27058455  0.74488777     0.41100
H496        H  0.56294935  0.23071439  0.72159064     0.35900
loop_ 
_geom_bond_atom_site_label_1 
_geom_bond_atom_site_label_2 
_geom_bond_distance 
_geom_bond_site_symmetry_2 
_ccdc_geom_bond_type 
N1            C5   1.352       .  A
N1            C2   1.360       .  A
N1          C100   1.433       .  S
C2            C3   1.389       .  A
C2          C484   1.494       .  S
C3            C4   1.374       .  A
C3            H6   1.082       .  S
C4            C5   1.377       .  A
C4            H7   1.082       .  S
C5           C45   1.468       .  S
N8           C12   1.345       .  A
N8            N9   1.320       .  A
N8          Cu16   2.066       .  S
N9           C10   1.346       .  A
N9          Cu15   2.078       .  S
C10          C11   1.386       .  A
C10          H13   1.082   1_655  S
C11          C12   1.383       .  A
C11         C145   1.473   1_556  S
C12          H14   1.082       .  S
Cu15         N18   2.079       .  S
Cu16         N26   2.067       .  S
Cu17         N19   2.099       .  S
Cu17         N25   2.098       .  S
N18          C22   1.346       .  A
N18          N19   1.326       .  A
N19          C20   1.350       .  A
C20          C21   1.384       .  A
C20          H23   1.082       .  S
C21          N56   1.436   1_655  S
C21          C22   1.377       .  A
C22          H24   1.082   1_655  S
N25          C29   1.352       .  A
N25          N26   1.324       .  A
N26          C27   1.341       .  A
C27          C28   1.378       .  A
C27          H30   1.082       .  S
C28          C29   1.388       .  A
C28          C52   1.473       .  S
C29          H31   1.082       .  S
N32          C36   1.346       .  A
N32          N33   1.321       .  A
N32         Cu40   2.074       .  S
N33          C34   1.344       .  A
N33         Cu39   2.068       .  S
C34          C35   1.384       .  A
C34          H37   1.082       .  S
C35          C36   1.384       .  A
C35         C121   1.472   1_556  S
C36          H38   1.082       .  S
Cu39         N42   2.068       .  S
Cu40         N50   2.075       .  S
Cu41         N43   2.088       .  S
Cu41         N49   2.087       .  S
N42          C46   1.344       .  A
N42          N43   1.323       .  A
N43          C44   1.346       .  A
C44          C45   1.385       .  A
C44          H47   1.082       .  S
C45          C46   1.380       .  A
C46          H48   1.082       .  S
N49          C53   1.350       .  A
N49          N50   1.323       .  A
N50          C51   1.343       .  A
C51          C52   1.381       .  A
C51          H54   1.082       .  S
C52          C53   1.386       .  A
C53          H55   1.082       .  S
N56          C60   1.355       .  A
N56          C57   1.362       .  A
C57          C58   1.387       .  A
C57         C473   1.494   1_455  S
C58          C59   1.372       .  A
C58          H61   1.082       .  S
C59          C60   1.378       .  A
C59          H62   1.082       .  S
C60          C76   1.470       .  S
N63          C67   1.346       .  A
N63          N64   1.322       .  A
N63         Cu71   2.076       .  S
N64          C65   1.349   1_455  A
N64         Cu70   2.091       .  S
C65          C66   1.388       .  A
C65          H68   1.082       .  S
C66          C67   1.385   1_655  A
C66         C176   1.481       .  S
C67          H69   1.082       .  S
Cu70         N73   2.090       .  S
Cu71         N81   2.075       .  S
Cu72         N74   2.076       .  S
Cu72         N80   2.074       .  S
N73          C77   1.346       .  A
N73          N74   1.323       .  A
N74          C75   1.344       .  A
C75          C76   1.384       .  A
C75          H78   1.082       .  S
C76          C77   1.385       .  A
C77          H79   1.082   1_455  S
N80          C84   1.349       .  A
N80          N81   1.322       .  A
N81          C82   1.342       .  A
C82          C83   1.382       .  A
C82          H85   1.082       .  S
C83          C84   1.384       .  A
C83         C107   1.470       .  S
C84          H86   1.082       .  S
N87          C91   1.342       .  A
N87          N88   1.320       .  A
N87         Cu95   2.057       .  S
N88          C89   1.346       .  A
N88         Cu94   2.072       .  S
C89          C90   1.385       .  A
C89          H92   1.082       .  S
C90          C91   1.380       .  A
C90         C200   1.468       .  S
C91          H93   1.082       .  S
Cu94         N97   2.073       .  S
Cu95        N105   2.057       .  S
Cu96         N98   2.091       .  S
Cu96        N104   2.089       .  S
N97         C101   1.347       .  A
N97          N98   1.326       .  A
N98          C99   1.347       .  A
C99         C100   1.381       .  A
C99         H102   1.082       .  S
C100        C101   1.376       .  A
C101        H103   1.082       .  S
N104        C108   1.350       .  A
N104        N105   1.322       .  A
N105        C106   1.340       .  A
C106        C107   1.378       .  A
C106        H109   1.082       .  S
C107        C108   1.387       .  A
C108        H110   1.082       .  S
N111        C115   1.355   1_655  A
N111        C112   1.367       .  A
N111        C186   1.436       .  S
C112        C113   1.390   1_655  A
C112        C456   1.504       .  S
C113        C114   1.372       .  A
C113        H116   1.081       .  S
C114        C115   1.376       .  A
C114        H117   1.082       .  S
C115        C155   1.472       .  S
N118        C122   1.343       .  A
N118        N119   1.321       .  A
N118       Cu126   2.063       .  S
N119        C120   1.347       .  A
N119       Cu125   2.081       .  S
C120        C121   1.386       .  A
C120        H123   1.082       .  S
C121        C122   1.382       .  A
C122        H124   1.082       .  S
Cu125       N128   2.082       .  S
Cu126       N136   2.063       .  S
Cu127       N129   2.083       .  S
Cu127       N135   2.081       .  S
N128        C132   1.350       .  A
N128        N129   1.326       .  A
N129        C130   1.344       .  A
C130        C131   1.378       .  A
C130        H133   1.082       .  S
C131        N166   1.433       .  S
C131        C132   1.379       .  A
C132        H134   1.082       .  S
N135        C139   1.349       .  A
N135        N136   1.322       .  A
N136        C137   1.341       .  A
C137        C138   1.379       .  A
C137        H140   1.082       .  S
C138        C139   1.385       .  A
C138        C162   1.468       .  S
C139        H141   1.082       .  S
N142        C146   1.345       .  A
N142        N143   1.322       .  A
N142       Cu150   2.068       .  S
N143        C144   1.346   1_455  A
N143       Cu149   2.081       .  S
C144        C145   1.385       .  A
C144        H147   1.082       .  S
C145        C146   1.383   1_655  A
C146        H148   1.082       .  S
Cu149       N152   2.081       .  S
Cu150       N160   2.068       .  S
Cu151       N153   2.083       .  S
Cu151       N159   2.081       .  S
N152        C156   1.346   1_455  A
N152        N153   1.322       .  A
N153        C154   1.346       .  A
C154        C155   1.385       .  A
C154        H157   1.082       .  S
C155        C156   1.384   1_455  A
C156        H158   1.082       .  S
N159        C163   1.349       .  A
N159        N160   1.323       .  A
N160        C161   1.342       .  A
C161        C162   1.380       .  A
C161        H164   1.082       .  S
C162        C163   1.384       .  A
C163        H165   1.082       .  S
N166        C170   1.353       .  A
N166        C167   1.359       .  A
C167        C168   1.386       .  A
C167        C442   1.487       .  S
C168        C169   1.376       .  A
C168        H171   1.082       .  S
C169        C170   1.379       .  A
C169        H172   1.082       .  S
C170        C210   1.472       .  S
N173        C177   1.348       .  A
N173        N174   1.322       .  A
N173       Cu181   2.082       .  S
N174        C175   1.348       .  A
N174       Cu180   2.093       .  S
C175        C176   1.388       .  A
C175        H178   1.082   1_655  S
C176        C177   1.385       .  A
C177        H179   1.082       .  S
Cu180       N183   2.094       .  S
Cu181       N191   2.083       .  S
Cu182       N184   2.080       .  S
Cu182       N190   2.079       .  S
N183        C187   1.347       .  A
N183        N184   1.326       .  A
N184        C185   1.349       .  A
C185        C186   1.379       .  A
C185        H188   1.082       .  S
C186        C187   1.383       .  A
C187        H189   1.082   1_655  S
N190        C194   1.349       .  A
N190        N191   1.323       .  A
N191        C192   1.344       .  A
C192        C193   1.382       .  A
C192        H195   1.082       .  S
C193        C194   1.383       .  A
C193        C217   1.470       .  S
C194        H196   1.082       .  S
N197        C201   1.344       .  A
N197        N198   1.320       .  A
N197       Cu205   2.060       .  S
N198        C199   1.344       .  A
N198       Cu204   2.070       .  S
C199        C200   1.384       .  A
C199        H202   1.082       .  S
C200        C201   1.381       .  A
C201        H203   1.082       .  S
Cu204       N207   2.070       .  S
Cu205       N215   2.061       .  S
Cu206       N208   2.096       .  S
Cu206       N214   2.096       .  S
N207        C211   1.345       .  A
N207        N208   1.323       .  A
N208        C209   1.347       .  A
C209        C210   1.386       .  A
C209        H212   1.082       .  S
C210        C211   1.380       .  A
C211        H213   1.082       .  S
N214        C218   1.351       .  A
N214        N215   1.323       .  A
N215        C216   1.341       .  A
C216        C217   1.377       .  A
C216        H219   1.082       .  S
C217        C218   1.387       .  A
C218        H220   1.082       .  S
N221        C225   1.357   1_655  A
N221        C222   1.365       .  A
N221        C296   1.438       .  S
C222        C223   1.388   1_655  A
C222        C459   1.493       .  S
C223        C224   1.370       .  A
C223        H226   1.082       .  S
C224        C225   1.377       .  A
C224        H227   1.082       .  S
C225        C241   1.471       .  S
N228        C232   1.347       .  A
N228        N229   1.322   1_455  A
N228       Cu236   2.078       .  S
N229        C230   1.345   1_565  A
N229       Cu235   2.072   1_565  S
C230        C231   1.383   1_545  A
C230        H233   1.082       .  S
C231        C232   1.384   1_655  A
C231        C396   1.473       .  S
C232        H234   1.082       .  S
Cu235       N238   2.070       .  S
Cu236       N246   2.078       .  S
Cu237       N239   2.087   1_565  S
Cu237       N245   2.086       .  S
N238        C242   1.345       .  A
N238        N239   1.322   1_655  A
N239        C240   1.345       .  A
C240        C241   1.387       .  A
C240        H243   1.082       .  S
C241        C242   1.382   1_455  A
C242        H244   1.082       .  S
N245        C249   1.350       .  A
N245        N246   1.323       .  A
N246        C247   1.344       .  A
C247        C248   1.382       .  A
C247        H250   1.082       .  S
C248        C249   1.385       .  A
C248        C272   1.474       .  S
C249        H251   1.082       .  S
N252        C256   1.344       .  A
N252        N253   1.321       .  A
N252       Cu260   2.068       .  S
N253        C254   1.347       .  A
N253       Cu259   2.080       .  S
C254        C255   1.386       .  A
C254        H257   1.082       .  S
C255        C256   1.383       .  A
C255        C420   1.475   1_565  S
C256        H258   1.082       .  S
Cu259       N262   2.081       .  S
Cu260       N270   2.068       .  S
Cu261       N263   2.098       .  S
Cu261       N269   2.097       .  S
N262        C266   1.349       .  A
N262        N263   1.327       .  A
N263        C264   1.348       .  A
C264        C265   1.382       .  A
C264        H267   1.082       .  S
C265        N276   1.434       .  S
C265        C266   1.378       .  A
C266        H268   1.082       .  S
N269        C273   1.351       .  A
N269        N270   1.323       .  A
N270        C271   1.343       .  A
C271        C272   1.380       .  A
C271        H274   1.082       .  S
C272        C273   1.388       .  A
C273        H275   1.082       .  S
N276        C280   1.353       .  A
N276        C277   1.356       .  A
C277        C278   1.383       .  A
C277        C445   1.476       .  S
C278        C279   1.376       .  A
C278        H281   1.082       .  S
C279        C280   1.381       .  A
C279        H282   1.082       .  S
C280        C320   1.471       .  S
N283        C287   1.345       .  A
N283        N284   1.319       .  A
N283       Cu291   2.065       .  S
N284        C285   1.347       .  A
N284       Cu290   2.080       .  S
C285        C286   1.387   1_545  A
C285        H288   1.082       .  S
C286        C287   1.384   1_565  A
C286        C365   1.476   1_554  S
C287        H289   1.082   1_545  S
Cu290       N293   2.080       .  S
Cu291       N301   2.064       .  S
Cu292       N294   2.112       .  S
Cu292       N300   2.111       .  S
N293        C297   1.343       .  A
N293        N294   1.326       .  A
N294        C295   1.355       .  A
C295        C296   1.388       .  A
C295        H298   1.082       .  S
C296        C297   1.378       .  A
C297        H299   1.082       .  S
N300        C304   1.354       .  A
N300        N301   1.324       .  A
N301        C302   1.341       .  A
C302        C303   1.377       .  A
C302        H305   1.082       .  S
C303        C304   1.390       .  A
C303        C327   1.475       .  S
C304        H306   1.082       .  S
N307        C311   1.348       .  A
N307        N308   1.320   1_545  A
N307       Cu315   2.080       .  S
N308        C309   1.340       .  A
N308       Cu314   2.056       .  S
C309        C310   1.380   1_564  A
C309        H312   1.082       .  S
C310        C311   1.387   1_556  A
C310        C341   1.470       .  S
C311        H313   1.082   1_554  S
Cu314       N317   2.055       .  S
Cu315       N325   2.083       .  S
Cu316       N318   2.097       .  S
Cu316       N324   2.097   1_565  S
N317        C321   1.342       .  A
N317        N318   1.320       .  A
N318        C319   1.348       .  A
C319        C320   1.391       .  A
C319        H322   1.082       .  S
C320        C321   1.380       .  A
C321        H323   1.082       .  S
N324        C328   1.351       .  A
N324        N325   1.325       .  A
N325        C326   1.343       .  A
C326        C327   1.382       .  A
C326        H329   1.082       .  S
C327        C328   1.386       .  A
C328        H330   1.082       .  S
N331        C335   1.354       .  A
N331        C332   1.361       .  A
N331        C430   1.436       .  S
C332        C333   1.387       .  A
C332        C487   1.490       .  S
C333        C334   1.370       .  A
C333        H336   1.082       .  S
C334        C335   1.378       .  A
C334        H337   1.082       .  S
C335        C351   1.468       .  S
N338        C342   1.342   1_545  A
N338        N339   1.321       .  A
N338       Cu346   2.064   1_545  S
N339        C340   1.347       .  A
N339       Cu345   2.074       .  S
C340        C341   1.384       .  A
C340        H343   1.082       .  S
C341        C342   1.382   1_545  A
C342        H344   1.082       .  S
Cu345       N348   2.075       .  S
Cu346       N356   2.063       .  S
Cu347       N349   2.080       .  S
Cu347       N355   2.079   1_545  S
N348        C352   1.345       .  A
N348        N349   1.322       .  A
N349        C350   1.344       .  A
C350        C351   1.384       .  A
C350        H353   1.082       .  S
C351        C352   1.383       .  A
C352        H354   1.082       .  S
N355        C359   1.348       .  A
N355        N356   1.322       .  A
N356        C357   1.341       .  A
C357        C358   1.380       .  A
C357        H360   1.082       .  S
C358        C359   1.385       .  A
C358        C382   1.469       .  S
C359        H361   1.082       .  S
N362        C366   1.346       .  A
N362        N363   1.321   1_455  A
N362       Cu370   2.067       .  S
N363        C364   1.347       .  A
N363       Cu369   2.086       .  S
C364        C365   1.387       .  A
C364        H367   1.082       .  S
C365        C366   1.383   1_655  A
C366        H368   1.082       .  S
Cu369       N372   2.086       .  S
Cu370       N380   2.067       .  S
Cu371       N373   2.087       .  S
Cu371       N379   2.086       .  S
N372        C376   1.347       .  A
N372        N373   1.326   1_655  A
N373        C374   1.349   1_455  A
C374        C375   1.383       .  A
C374        H377   1.082   1_655  S
C375        N386   1.436       .  S
C375        C376   1.379       .  A
C376        H378   1.082       .  S
N379        C383   1.349       .  A
N379        N380   1.323       .  A
N380        C381   1.341       .  A
C381        C382   1.379       .  A
C381        H384   1.082       .  S
C382        C383   1.385       .  A
C383        H385   1.082       .  S
N386        C390   1.357       .  A
N386        C387   1.364       .  A
C387        C388   1.388       .  A
C387        C470   1.496       .  S
C388        C389   1.372       .  A
C388        H391   1.082       .  S
C389        C390   1.378       .  A
C389        H392   1.082       .  S
C390        C406   1.474       .  S
N393        C397   1.344       .  A
N393        N394   1.321   1_545  A
N393       Cu401   2.069       .  S
N394        C395   1.347       .  A
N394       Cu400   2.078       .  S
C395        C396   1.385       .  A
C395        H398   1.082       .  S
C396        C397   1.383   1_565  A
C397        H399   1.082       .  S
Cu400       N403   2.078       .  S
Cu401       N411   2.070       .  S
Cu402       N404   2.093       .  S
Cu402       N410   2.092   1_565  S
N403        C407   1.346       .  A
N403        N404   1.323       .  A
N404        C405   1.346       .  A
C405        C406   1.388       .  A
C405        H408   1.082       .  S
C406        C407   1.384       .  A
C407        H409   1.082       .  S
N410        C414   1.351       .  A
N410        N411   1.323       .  A
N411        C412   1.342       .  A
C412        C413   1.381       .  A
C412        H415   1.082       .  S
C413        C414   1.387       .  A
C413        C437   1.474       .  S
C414        H416   1.082       .  S
N417        C421   1.347       .  A
N417        N418   1.320       .  A
N417       Cu425   2.072       .  S
N418        C419   1.345       .  A
N418       Cu424   2.074       .  S
C419        C420   1.385       .  A
C419        H422   1.082       .  S
C420        C421   1.385       .  A
C421        H423   1.082   1_545  S
Cu424       N427   2.075       .  S
Cu425       N435   2.073       .  S
Cu426       N428   2.096       .  S
Cu426       N434   2.095       .  S
N427        C431   1.344       .  A
N427        N428   1.325       .  A
N428        C429   1.351       .  A
C429        C430   1.385       .  A
C429        H432   1.082       .  S
C430        C431   1.378       .  A
C431        H433   1.082       .  S
N434        C438   1.351       .  A
N434        N435   1.324       .  A
N435        C436   1.342       .  A
C436        C437   1.380       .  A
C436        H439   1.082       .  S
C437        C438   1.386       .  A
C438        H440   1.082       .  S
C441        C442   1.405       .  A
C441        C446   1.401       .  A
C441        H448   1.084       .  S
C442        C443   1.420       .  A
C443        C444   1.409       .  A
C443        N450   1.436       .  S
C444        C445   1.402       .  A
C444        H449   1.084       .  S
C445        C446   1.406       .  A
C446        N447   1.438       .  S
N447        H451   1.045       .  S
N447        H452   1.046       .  S
N450        H453   1.043       .  S
N450        H454   1.045       .  S
C455        C456   1.403       .  A
C455        C460   1.402       .  A
C455        H462   1.076       .  S
C456        C457   1.421       .  A
C457        C458   1.410       .  A
C457        N464   1.438       .  S
C458        C459   1.401       .  A
C458        H463   1.081       .  S
C459        C460   1.420       .  A
C460        N461   1.438       .  S
N461        H465   1.046   1_655  S
N461        H466   1.044       .  S
N464        H467   1.045       .  S
N464        H468   1.046       .  S
C469        C470   1.402       .  A
C469        C474   1.403   1_655  A
C469        H476   1.080   1_655  S
C470        C471   1.417       .  A
C471        C472   1.408       .  A
C471        N478   1.438       .  S
C472        C473   1.402       .  A
C472        H477   1.080       .  S
C473        C474   1.421   1_655  A
C474        N475   1.437       .  S
N475        H479   1.045       .  S
N475        H480   1.045       .  S
N478        H481   1.045       .  S
N478        H482   1.046       .  S
C483        C484   1.404       .  A
C483        C488   1.402       .  A
C483        H490   1.080       .  S
C484        C485   1.421       .  A
C485        C486   1.402       .  A
C485        N492   1.439       .  S
C486        C487   1.401       .  A
C486        H491   1.080       .  S
C487        C488   1.419       .  A
C488        N489   1.437       .  S
N489        H493   1.044       .  S
N489        H494   1.045       .  S
N492        H495   1.044       .  S
N492        H496   1.046       .  S
