geometry optimzed in LAMMPS
_audit_creation_date              2020-11-30 
_audit_creation_method            'lammps2cif' 
_symmetry_space_group_name_H-M    'P1' 
_symmetry_Int_Tables_number       1 
_symmetry_cell_setting            triclinic 
loop_ 
_symmetry_equiv_pos_as_xyz 
  x,y,z 
_cell_length_a                    31.44584127 
_cell_length_b                    31.26216940864932 
_cell_length_c                    24.911265798487026 
_cell_angle_alpha                 88.76778169947035 
_cell_angle_beta                  92.5623690160874 
_cell_angle_gamma                 120.74313034871966 
loop_ 
_atom_site_label 
_atom_site_type_symbol 
_atom_site_fract_x 
_atom_site_fract_y 
_atom_site_fract_z 
_atom_site_charge 
O1          O  0.26375407  0.32101963  0.03792781    -0.72100
O2          O  0.18099421  0.20436533  0.45155250    -0.72400
O3          O  0.19243774  0.22612798  0.05857057    -0.72200
O4          O  0.25266343  0.29875827  0.43012505    -0.72200
O5          O  0.30864174  0.27802420  0.44034574    -0.72200
O6          O  0.24549858  0.20130839  0.06490380    -0.72200
O7          O  0.23753288  0.18409927  0.45682765    -0.72200
O8          O  0.31642523  0.29638219  0.04896015    -0.72300
V9          V  0.22349482  0.26216340  0.99466599     1.35200
V10         V  0.27613413  0.24067121  0.50273108     1.35200
C11         C  0.30379785  0.32762145  0.06001392     0.77100
C12         C  0.19579946  0.17538093  0.43781082     0.77200
C13         C  0.20820316  0.20060862  0.08315615     0.77000
C14         C  0.29043119  0.29969659  0.41254803     0.77000
O15         O  0.45795440  0.27235665  0.05148205    -0.72100
O16         O  0.46034513  0.18200938  0.45297325    -0.72400
O17         O  0.46198052  0.18978819  0.06003064    -0.72200
O18         O  0.45327096  0.26406453  0.44331239    -0.72200
O19         O  0.03313938  0.31369792  0.44765853    -0.72200
O20         O  0.04222598  0.23082504  0.05661886    -0.72200
O21         O  0.03988238  0.23082278  0.44907291    -0.72200
O22         O  0.03831814  0.31408405  0.05622445    -0.72300
V23         V  0.45991197  0.22803067  0.00182528     1.35200
V24         V  0.03694426  0.27156809  0.50219567     1.35200
C25         C  0.99796371  0.30756431  0.07218240     0.77100
C26         C  0.50094160  0.19150148  0.43375998     0.77200
C27         C  0.50318485  0.19675147  0.07733949     0.77000
C28         C  0.99116200  0.30220044  0.42648793     0.77000
O29         O  0.30735749  0.03720718  0.05995814    -0.72100
O30         O  0.22465043  0.03114309  0.44077947    -0.72400
O31         O  0.21962732  0.03075751  0.04868862    -0.72200
O32         O  0.31385090  0.03896296  0.45276507    -0.72200
O33         O  0.27746662  0.45733075  0.45506228    -0.72200
O34         O  0.17807604  0.44854504  0.04789182    -0.72200
O35         O  0.18747221  0.44913699  0.43918057    -0.72200
O36         O  0.26581591  0.45466516  0.06279266    -0.72300
V37         V  0.26555649  0.03285527  0.00046436     1.35200
V38         V  0.22780688  0.45386714  0.50098815     1.35200
C39         C  0.29690449  0.49595329  0.08388029     0.77100
C40         C  0.19145084  0.48834474  0.41873053     0.77200
C41         C  0.18164027  0.48818216  0.06550758     0.77000
C42         C  0.31198955  0.49957431  0.43962133     0.77000
C43         C  0.99079514  0.43505383  0.24736238    -0.02900
C44         C  0.50969966  0.06425808  0.25579184    -0.02900
C45         C  0.06539308  0.05647836  0.24847269    -0.02900
C46         C  0.05345572  0.49159802  0.24048395    -0.02900
C47         C  0.44550437  0.00525764  0.25965304    -0.02900
C48         C  0.43630450  0.44305385  0.25252704    -0.02900
C49         C  0.41600522  0.03033569  0.16566765    -0.09500
C50         C  0.40289192  0.00261791  0.21334488     0.06700
C51         C  0.34490548  0.46919540  0.21559325    -0.03300
C52         C  0.31253207  0.46830289  0.17364985    -0.07700
C53         C  0.33461124  0.00017593  0.12678593     0.05800
C54         C  0.38510241  0.02997501  0.12373073    -0.02800
Br55       Br  0.41422912  0.06147808  0.05687141    -0.02500
H56         H  0.44952783  0.04327413  0.15255646     0.09700
H57         H  0.27279241  0.44371135  0.17569295     0.07700
Br58       Br  0.30202339  0.42587745  0.27137445    -0.02900
C59         C  0.39151757  0.00267968  0.41089260    -0.09500
C60         C  0.34951952  0.00538409  0.39749058     0.06700
C61         C  0.34459157  0.52036053  0.34772130    -0.03300
C62         C  0.37844549  0.02368538  0.30747626    -0.07700
C63         C  0.41596823  0.00909538  0.31387963     0.05800
C64         C  0.42595763  0.00853968  0.37163059    -0.02800
Br65       Br  0.48124128  0.01251900  0.40709379    -0.02500
H66         H  0.39822814  0.99718281  0.45284297     0.09700
H67         H  0.37332476  0.04022451  0.27116151     0.07700
Br68       Br  0.29525160  0.53713175  0.32675547    -0.02900
C69         C  0.16204910  0.47315082  0.32265810    -0.09500
C70         C  0.15767109  0.48575567  0.37366026     0.06700
C71         C  0.12151181  0.99398482  0.38267621    -0.03300
C72         C  0.08847921  0.98987017  0.34077443    -0.07700
C73         C  0.09046905  0.48312569  0.28532177     0.05800
C74         C  0.13076174  0.47143495  0.27897369    -0.02800
Br75       Br  0.15184525  0.44566919  0.22121700    -0.02500
H76         H  0.19054019  0.46396255  0.31763394     0.09700
H77         H  0.05994828  0.99486593  0.35209019     0.07700
Br78       Br  0.11348327  0.00937956  0.45285500    -0.02900
C79         C  0.09916274  0.45162303  0.10880828    -0.09500
C80         C  0.14903067  0.48841017  0.10730932     0.06700
C81         C  0.16947084  0.02768743  0.14625174    -0.03300
C82         C  0.13682326  0.02541682  0.18527815    -0.07700
C83         C  0.08223127  0.49225116  0.18447506     0.05800
C84         C  0.06609321  0.46123947  0.13597652    -0.02800
Br85       Br  0.04697038  0.47757494  0.06717164    -0.02500
H86         H  0.08531635  0.42134261  0.07985499     0.09700
H87         H  0.15195089  0.04741668  0.21942768     0.07700
Br88       Br  0.23916931  0.07511755  0.15576203    -0.02900
C89         C  0.02833663  0.35098303  0.16044797    -0.09500
C90         C  0.99752036  0.33967857  0.11479021     0.06700
C91         C  0.46235794  0.35371667  0.11364211    -0.03300
C92         C  0.45655260  0.37634109  0.15829557    -0.07700
C93         C  0.99157489  0.39774058  0.20194001     0.05800
C94         C  0.02550463  0.37745061  0.20416499    -0.02800
Br95       Br  0.05550997  0.36148525  0.26622092    -0.02500
H96         H  0.05307805  0.33635546  0.16321865     0.09700
H97         H  0.41861776  0.36281559  0.16377776     0.07700
Br98       Br  0.42054197  0.34093214  0.05119745    -0.02900
C99         C  0.46120438  0.31041328  0.33608440    -0.09500
C100        C  0.98571370  0.33264878  0.38354619     0.06700
C101        C  0.99741013  0.38115594  0.39204933    -0.03300
C102        C  0.99128304  0.40911503  0.35022916    -0.07700
C103        C  0.98271818  0.39440304  0.29614953     0.05800
C104        C  0.45847774  0.33855068  0.29274201    -0.02800
Br105      Br  0.42400778  0.28950969  0.23461115    -0.02500
H106        H  0.44648956  0.27071765  0.33198871     0.09700
H107        H  0.98989860  0.44126756  0.36041124     0.07700
Br108      Br  0.01177939  0.40409411  0.46368781    -0.02900
C109        C  0.04856685  0.16257648  0.38410532    -0.09500
C110        C  0.50348311  0.15866627  0.39331397     0.06700
C111        C  0.46571078  0.13281814  0.35519403    -0.03300
C112        C  0.47243088  0.10682974  0.31437011    -0.07700
C113        C  0.51395773  0.10095087  0.30720500     0.06100
C114        C  0.05547619  0.14164243  0.33786519    -0.02800
Br115      Br  0.12232555  0.18751798  0.31874628    -0.02500
H116        H  0.08048689  0.18838606  0.40888443     0.09700
H117        H  0.44676429  0.09732717  0.28134373     0.07700
Br118      Br  0.41227988  0.14566557  0.34529390    -0.02900
C119        C  0.98350920  0.16176435  0.16837145    -0.09500
C120        C  0.50488558  0.16501740  0.12031098     0.06700
C121        C  0.52870840  0.13872223  0.11487406    -0.03300
C122        C  0.52620960  0.10585776  0.15519922    -0.07700
C123        C  0.51208852  0.10552834  0.20878814     0.05800
C124        C  0.99909318  0.14485766  0.21309398    -0.02800
Br125      Br  0.02845005  0.20341292  0.25985646    -0.02500
H126        H  0.96714270  0.18464549  0.17359520     0.09700
H127        H  0.52813856  0.07592882  0.14113057     0.07700
Br128      Br  0.56841482  0.15055397  0.05584417    -0.02900
C129        C  0.37937064  0.40721541  0.09855727    -0.09500
C130        C  0.33182725  0.36575624  0.10377337     0.06700
C131        C  0.31409250  0.35592677  0.15523328    -0.03300
C132        C  0.34588958  0.37888666  0.20025400    -0.07700
C133        C  0.39766565  0.41718193  0.19873783     0.05800
C134        C  0.40988527  0.43297293  0.14464542    -0.02800
Br135      Br  0.47217798  0.48197591  0.13162053    -0.02500
H136        H  0.39393946  0.41829665  0.05881532     0.09700
H137        H  0.32629276  0.36608838  0.23625185     0.07700
Br138      Br  0.24474388  0.31446441  0.16555808    -0.02900
C139        C  0.33475036  0.38093306  0.36579780    -0.09500
C140        C  0.31631457  0.32967877  0.36406299     0.06700
C141        C  0.33859970  0.31430464  0.32710576    -0.03300
C142        C  0.37627436  0.35014353  0.29398743    -0.07700
C143        C  0.40033803  0.40314838  0.30083448     0.05800
C144        C  0.38376151  0.41249136  0.34971694    -0.02800
Br145      Br  0.40873281  0.40294694  0.41972457    -0.02500
H146        H  0.32016487  0.39474449  0.39528152     0.09700
H147        H  0.38164316  0.33659080  0.25771720     0.07700
Br148      Br  0.31589125  0.24540109  0.31699317    -0.02900
C149        C  0.08873139  0.07865711  0.34979816    -0.09500
C150        C  0.10712256  0.08239565  0.29920767     0.06700
C151        C  0.16232183  0.10964388  0.30296482    -0.03300
C152        C  0.18958697  0.13373105  0.35111958    -0.07700
C153        C  0.16689733  0.13528860  0.39659427     0.05800
C154        C  0.11597137  0.10429861  0.39654223    -0.02800
Br155      Br  0.08169356  0.09836744  0.45838784    -0.02500
H156        H  0.05063179  0.05665426  0.35042343     0.09700
H157        H  0.22966006  0.15557950  0.35251494     0.07700
Br158      Br  0.21393779  0.12891304  0.25270570    -0.02900
C159        C  0.10599798  0.08587360  0.14799204    -0.09500
C160        C  0.10171190  0.09827769  0.20156667     0.06700
C161        C  0.13459253  0.15224687  0.20925353    -0.03300
C162        C  0.17676061  0.18097294  0.17782391    -0.07700
C163        C  0.17897978  0.16526770  0.12687579     0.05800
C164        C  0.14457176  0.11655111  0.11367459    -0.02800
Br165      Br  0.15482316  0.09049628  0.05087145    -0.02500
H166        H  0.07831584  0.05165028  0.13127270     0.09700
H167        H  0.20560325  0.21768272  0.19085599     0.07700
Br168      Br  0.11705690  0.20274528  0.19553052    -0.02900
O169        O  0.26377202  0.32101698  0.53791710    -0.72100
O170        O  0.18098833  0.20437929  0.95154139    -0.72400
O171        O  0.19245782  0.22612718  0.55858124    -0.72200
O172        O  0.25266072  0.29877712  0.93013007    -0.72200
O173        O  0.30862673  0.27802561  0.94034139    -0.72200
O174        O  0.24550631  0.20129160  0.56489821    -0.72200
O175        O  0.23751952  0.18410310  0.95683933    -0.72200
O176        O  0.31643297  0.29636824  0.54896776    -0.72300
V177        V  0.22350629  0.26215402  0.49466788     1.35200
V178        V  0.27612293  0.24068055  0.00273217     1.35200
C179        C  0.30381174  0.32761499  0.56001024     0.77100
C180        C  0.19579023  0.17538829  0.93781370     0.77200
C181        C  0.20821827  0.20060042  0.58316037     0.77000
C182        C  0.29042326  0.29970730  0.91254883     0.77000
O183        O  0.45793869  0.27234892  0.55147182    -0.72100
O184        O  0.46035495  0.18201083  0.95299100    -0.72400
O185        O  0.46195577  0.18977419  0.56001452    -0.72200
O186        O  0.45327255  0.26406058  0.94332337    -0.72200
O187        O  0.03313895  0.31369225  0.94765431    -0.72200
O188        O  0.04225011  0.23083569  0.55661520    -0.72200
O189        O  0.03987466  0.23081240  0.94907581    -0.72200
O190        O  0.03833435  0.31409273  0.55622943    -0.72300
V191        V  0.45989904  0.22802580  0.50181149     1.35200
V192        V  0.03693169  0.27155886  0.00219459     1.35200
C193        C  0.99798038  0.30757324  0.57218905     0.77100
C194        C  0.50094893  0.19150700  0.93376797     0.77200
C195        C  0.50315801  0.19673926  0.57733426     0.77000
C196        C  0.99116461  0.30220167  0.92648110     0.77000
O197        O  0.30736102  0.03721110  0.55995550    -0.72100
O198        O  0.22463963  0.03113336  0.94078781    -0.72400
O199        O  0.21963116  0.03076395  0.54868064    -0.72200
O200        O  0.31384245  0.03895940  0.95276665    -0.72200
O201        O  0.27746485  0.45733097  0.95505932    -0.72200
O202        O  0.17808962  0.44855345  0.54790585    -0.72200
O203        O  0.18747561  0.44914824  0.93916811    -0.72200
O204        O  0.26583618  0.45468437  0.56279394    -0.72300
V205        V  0.26556302  0.03286142  0.50045928     1.35200
V206        V  0.22779921  0.45386310  0.00098058     1.35200
C207        C  0.29692205  0.49597622  0.58387601     0.77100
C208        C  0.19145278  0.48836026  0.91873224     0.77200
C209        C  0.18164713  0.48819201  0.56550672     0.77000
C210        C  0.31198642  0.49957576  0.93961875     0.77000
C211        C  0.99079953  0.43505901  0.74736029    -0.02900
C212        C  0.50969387  0.06426400  0.75579293    -0.02900
C213        C  0.06539889  0.05647241  0.74847580    -0.02900
C214        C  0.05345690  0.49160858  0.74047808    -0.02900
C215        C  0.44549966  0.00526339  0.75965507    -0.02900
C216        C  0.43630472  0.44305609  0.75252624    -0.02900
C217        C  0.41600059  0.03033027  0.66566730    -0.09500
C218        C  0.40288544  0.00262248  0.71334933     0.06700
C219        C  0.34491869  0.46920418  0.71558054    -0.03300
C220        C  0.31254980  0.46831263  0.67363344    -0.07700
C221        C  0.33460854  0.00017736  0.62678551     0.05800
C222        C  0.38510040  0.02996239  0.62372407    -0.02800
Br223      Br  0.41423000  0.06143027  0.55685336    -0.02500
H224        H  0.44952294  0.04326249  0.65256230     0.09700
H225        H  0.27281035  0.44370994  0.67566548     0.07700
Br226      Br  0.30202933  0.42588460  0.77135598    -0.02900
C227        C  0.39151141  0.00267795  0.91089234    -0.09500
C228        C  0.34951543  0.00538696  0.89749120     0.06700
C229        C  0.34459531  0.52037268  0.84771840    -0.03300
C230        C  0.37844609  0.02369741  0.80747968    -0.07700
C231        C  0.41596424  0.00910129  0.81388095     0.05800
C232        C  0.42595271  0.00854191  0.87163026    -0.02800
Br233      Br  0.48123904  0.01252253  0.90708531    -0.02500
H234        H  0.39822045  0.99717626  0.95284183     0.09700
H235        H  0.37332722  0.04023868  0.77116522     0.07700
Br236      Br  0.29527537  0.53717562  0.82676543    -0.02900
C237        C  0.16206160  0.47318216  0.82265777    -0.09500
C238        C  0.15767774  0.48578017  0.87366036     0.06700
C239        C  0.12149926  0.99396827  0.88268185    -0.03300
C240        C  0.08847295  0.98985849  0.84077501    -0.07700
C241        C  0.09047541  0.48314597  0.78531796     0.05800
C242        C  0.13077424  0.47146375  0.77897210    -0.02800
Br243      Br  0.15186628  0.44570320  0.72121941    -0.02500
H244        H  0.19055693  0.46399921  0.81763540     0.09700
H245        H  0.05994081  0.99485485  0.85208588     0.07700
Br246      Br  0.11346352  0.00935949  0.95286014    -0.02900
C247        C  0.09917168  0.45163195  0.60881172    -0.09500
C248        C  0.14903804  0.48842367  0.60730732     0.06700
C249        C  0.16947052  0.02769319  0.64624118    -0.03300
C250        C  0.13682349  0.02541515  0.68527276    -0.07700
C251        C  0.08223505  0.49226321  0.68447003     0.05800
C252        C  0.06609934  0.46124930  0.63597305    -0.02800
Br253      Br  0.04699291  0.47759083  0.56715970    -0.02500
H254        H  0.08532737  0.42134778  0.57986368     0.09700
H255        H  0.15194751  0.04741962  0.71941797     0.07700
Br256      Br  0.23916523  0.07514802  0.65572967    -0.02900
C257        C  0.02835570  0.35099926  0.66045050    -0.09500
C258        C  0.99753592  0.33968834  0.61479447     0.06700
C259        C  0.46235061  0.35371670  0.61363445    -0.03300
C260        C  0.45654641  0.37634210  0.65828887    -0.07700
C261        C  0.99158478  0.39774828  0.70194048     0.05800
C262        C  0.02552073  0.37746593  0.70416642    -0.02800
Br263      Br  0.05553221  0.36151091  0.76622449    -0.02500
H264        H  0.05310219  0.33637804  0.66322095     0.09700
H265        H  0.41861164  0.36281797  0.66376790     0.07700
Br266      Br  0.42055234  0.34095294  0.55117821    -0.02900
C267        C  0.46119118  0.31040738  0.83609241    -0.09500
C268        C  0.98572409  0.33265327  0.88353876     0.06700
C269        C  0.99742050  0.38116034  0.89204237    -0.03300
C270        C  0.99129254  0.40911919  0.85022366    -0.07700
C271        C  0.98272605  0.39440774  0.79614472     0.05800
C272        C  0.45846610  0.33854519  0.79274854    -0.02800
Br273      Br  0.42399299  0.28950606  0.73461648    -0.02500
H274        H  0.44647533  0.27071197  0.83199692     0.09700
H275        H  0.98990465  0.44126895  0.86040718     0.07700
Br276      Br  0.01178873  0.40409995  0.96367915    -0.02900
C277        C  0.04856386  0.16257203  0.88410132    -0.09500
C278        C  0.50348709  0.15867135  0.89332196     0.06700
C279        C  0.46571329  0.13282588  0.85520363    -0.03300
C280        C  0.47243033  0.10683664  0.81437848    -0.07700
C281        C  0.51395607  0.10095788  0.80720735     0.06100
C282        C  0.05547630  0.14163613  0.83786434    -0.02800
Br283      Br  0.12232597  0.18751113  0.81874465    -0.02500
H284        H  0.08048291  0.18838328  0.90888043     0.09700
H285        H  0.44676335  0.09733754  0.78135359     0.07700
Br286      Br  0.41229108  0.14568690  0.84530214    -0.02900
C287        C  0.98353335  0.16177144  0.66837166    -0.09500
C288        C  0.50485582  0.16500474  0.62030692     0.06700
C289        C  0.52868654  0.13871703  0.61487276    -0.03300
C290        C  0.52619718  0.10585942  0.65520047    -0.07700
C291        C  0.51207632  0.10553098  0.70878916     0.05800
C292        C  0.99911046  0.14485827  0.71309349    -0.02800
Br293      Br  0.02847129  0.20341230  0.75985543    -0.02500
H294        H  0.96716583  0.18465180  0.67359570     0.09700
H295        H  0.52813433  0.07593350  0.64113482     0.07700
Br296      Br  0.56839882  0.15055713  0.55584619    -0.02900
C297        C  0.37937578  0.40722189  0.59855356    -0.09500
C298        C  0.33183821  0.36575183  0.60376900     0.06700
C299        C  0.31410223  0.35591863  0.65522785    -0.03300
C300        C  0.34589401  0.37888676  0.70024870    -0.07700
C301        C  0.39766787  0.41718706  0.69873535     0.05800
C302        C  0.40988658  0.43298274  0.64464362    -0.02800
Br303      Br  0.47217242  0.48200264  0.63162361    -0.02500
H304        H  0.39394369  0.41830909  0.55881214     0.09700
H305        H  0.32629371  0.36608829  0.73624440     0.07700
Br306      Br  0.24475713  0.31443414  0.66555291    -0.02900
C307        C  0.33474591  0.38094271  0.86579486    -0.09500
C308        C  0.31630849  0.32968819  0.86406348     0.06700
C309        C  0.33859066  0.31431053  0.82710655    -0.03300
C310        C  0.37626864  0.35014723  0.79398978    -0.07700
C311        C  0.40033459  0.40315264  0.80083355     0.05800
C312        C  0.38375738  0.41249839  0.84971350    -0.02800
Br313      Br  0.40873129  0.40296119  0.91972170    -0.02500
H314        H  0.32016173  0.39475639  0.89527746     0.09700
H315        H  0.38163676  0.33659267  0.75772068     0.07700
Br316      Br  0.31586724  0.24540479  0.81698556    -0.02900
C317        C  0.08872968  0.07864976  0.84980605    -0.09500
C318        C  0.10712466  0.08238799  0.79921652     0.06700
C319        C  0.16232407  0.10963548  0.80298047    -0.03300
C320        C  0.18958479  0.13373095  0.85113369    -0.07700
C321        C  0.16689117  0.13529105  0.89660263     0.05800
C322        C  0.11596651  0.10429534  0.89655111    -0.02800
Br323      Br  0.08169098  0.09836819  0.95839872    -0.02500
H324        H  0.05063002  0.05664678  0.85042749     0.09700
H325        H  0.22965772  0.15558086  0.85253428     0.07700
Br326      Br  0.21394986  0.12888718  0.75273921    -0.02900
C327        C  0.10600107  0.08586999  0.64799128    -0.09500
C328        C  0.10172138  0.09827138  0.70157039     0.06700
C329        C  0.13461173  0.15223774  0.70926234    -0.03300
C330        C  0.17678493  0.18095697  0.67783728    -0.07700
C331        C  0.17899394  0.16525802  0.62688060     0.05800
C332        C  0.14457528  0.11654620  0.61367362    -0.02800
Br333      Br  0.15481654  0.09049234  0.55086466    -0.02500
H334        H  0.07831813  0.05164702  0.63127095     0.09700
H335        H  0.20563318  0.21766110  0.69087664     0.07700
Br336      Br  0.11708480  0.20274137  0.69552483    -0.02900
O337        O  0.26463947  0.82180279  0.03756081    -0.72100
O338        O  0.18250272  0.70649131  0.44877127    -0.72400
O339        O  0.19164549  0.72685716  0.05632207    -0.72200
O340        O  0.25450835  0.80033094  0.42945232    -0.72200
O341        O  0.30975294  0.77867342  0.44030702    -0.72200
O342        O  0.24387211  0.70102783  0.06374813    -0.72200
O343        O  0.23824284  0.68517163  0.45517044    -0.72200
O344        O  0.31636241  0.79603184  0.04915317    -0.72300
V345        V  0.22434185  0.76343251  0.99326964     1.35200
V346        V  0.27617862  0.74097840  0.50216922     1.35200
C347        C  0.30440962  0.82781454  0.05995364     0.77100
C348        C  0.19736928  0.67757209  0.43477613     0.77200
C349        C  0.20641201  0.70067131  0.08123155     0.77000
C350        C  0.29186004  0.80043861  0.41204143     0.77000
O351        O  0.45935055  0.77325745  0.05251918    -0.72100
O352        O  0.45970067  0.68254561  0.45320951    -0.72400
O353        O  0.46110121  0.68979812  0.06018461    -0.72200
O354        O  0.45453518  0.76557306  0.44440722    -0.72200
O355        O  0.03450028  0.81445076  0.44942668    -0.72200
O356        O  0.04142997  0.72878882  0.05636756    -0.72200
O357        O  0.03929419  0.73060098  0.44901931    -0.72200
O358        O  0.03970836  0.81325711  0.05804371    -0.72300
V359        V  0.46017842  0.72874366  0.00243335     1.35200
V360        V  0.03729330  0.77101166  0.50302836     1.35200
C361        C  0.99965230  0.80762543  0.07377224     0.77100
C362        C  0.50006994  0.69168626  0.43368539     0.77200
C363        C  0.50187571  0.69561101  0.07720915     0.77000
C364        C  0.99275941  0.80350217  0.42796723     0.77000
O365        O  0.30181247  0.53532530  0.06270453    -0.72100
O366        O  0.22303519  0.52976181  0.43969544    -0.72400
O367        O  0.21497978  0.52909127  0.04710366    -0.72200
O368        O  0.31238200  0.53782833  0.45570458    -0.72200
O369        O  0.28042331  0.95860197  0.45494859    -0.72200
O370        O  0.18099838  0.95016814  0.04702565    -0.72200
O371        O  0.19100297  0.95072365  0.43845525    -0.72200
O372        O  0.26887909  0.95639309  0.06221395    -0.72300
V373        V  0.26228370  0.53128918  0.00113433     1.35200
V374        V  0.23090119  0.95542654  0.50046692     1.35200
C375        C  0.30175110  0.99776539  0.08163128     0.77100
C376        C  0.19409009  0.98982216  0.41894686     0.77200
C377        C  0.18540645  0.98973961  0.06599532     0.77000
C378        C  0.31383833  0.00060650  0.43784032     0.77000
C379        C  0.99295031  0.93531710  0.24792536    -0.02900
C380        C  0.50784492  0.56439253  0.25613936    -0.02900
C381        C  0.06362489  0.55670196  0.24764448    -0.02900
C382        C  0.05560395  0.99161418  0.24112006    -0.02900
C383        C  0.44354774  0.50530581  0.26013838    -0.02900
C384        C  0.43827930  0.94307100  0.25226637    -0.02900
C385        C  0.41210243  0.52974280  0.16658564    -0.09500
C386        C  0.40009580  0.50220993  0.21443801     0.06700
C387        C  0.34770690  0.96989823  0.21359883    -0.03300
C388        C  0.31623125  0.96976155  0.17118152    -0.07700
C389        C  0.32992963  0.49887953  0.12929307     0.05800
C390        C  0.38018897  0.52940591  0.12573940    -0.02800
Br391      Br  0.40668831  0.56122159  0.05836713    -0.02500
H392        H  0.44484316  0.54151079  0.15188948     0.09700
H393        H  0.27637784  0.94575881  0.17281880     0.07700
Br394      Br  0.30387600  0.92639512  0.26881738    -0.02900
C395        C  0.39077806  0.50302921  0.41224177    -0.09500
C396        C  0.34818987  0.50498505  0.39919643     0.06700
C397        C  0.34589544  0.02033497  0.34587371    -0.03300
C398        C  0.37704966  0.52397336  0.30898075    -0.07700
C399        C  0.41462690  0.50944128  0.31487968     0.05800
C400        C  0.42521869  0.50925630  0.37259188    -0.02800
Br401      Br  0.48205320  0.51541901  0.40724487    -0.02500
H402        H  0.39804334  0.49792856  0.45413059     0.09700
H403        H  0.37160512  0.54038312  0.27274779     0.07700
Br404      Br  0.29653078  0.03692990  0.32425408    -0.02900
C405        C  0.16479256  0.97437971  0.32308529    -0.09500
C406        C  0.16035781  0.98704513  0.37401335     0.06700
C407        C  0.11925847  0.49357304  0.38202709    -0.03300
C408        C  0.08650365  0.49005089  0.33997806    -0.07700
C409        C  0.09262453  0.98330251  0.28603358     0.05800
C410        C  0.13322246  0.97211026  0.27954910    -0.02800
Br411      Br  0.15394254  0.94583621  0.22186368    -0.02500
H412        H  0.19330084  0.96524555  0.31805623     0.09700
H413        H  0.05814145  0.49556124  0.35099031     0.07700
Br414      Br  0.11153508  0.50971684  0.45189070    -0.02900
C415        C  0.10279823  0.95195577  0.10977185    -0.09500
C416        C  0.15246618  0.98951155  0.10787288     0.06700
C417        C  0.16676654  0.52656708  0.14581317    -0.03300
C418        C  0.13437516  0.52529287  0.18455061    -0.07700
C419        C  0.08473332  0.99207317  0.18527421     0.05800
C420        C  0.06916929  0.96081637  0.13703131    -0.02800
Br421      Br  0.04938661  0.97628921  0.06849637    -0.02500
H422        H  0.08931703  0.92141015  0.08120895     0.09700
H423        H  0.14993463  0.54694328  0.21906958     0.07700
Br424      Br  0.23702530  0.57034334  0.15743892    -0.02900
C425        C  0.03069764  0.85128482  0.16199518    -0.09500
C426        C  0.99968655  0.83991172  0.11638553     0.06700
C427        C  0.46437499  0.85378063  0.11538349    -0.03300
C428        C  0.45894092  0.87672826  0.15973252    -0.07700
C429        C  0.99404685  0.89817392  0.20303812     0.05800
C430        C  0.02794634  0.87785758  0.20565958    -0.02800
Br431      Br  0.05797947  0.86245398  0.26831284    -0.02500
H432        H  0.05534505  0.83655723  0.16489455     0.09700
H433        H  0.42101324  0.86284335  0.16562072     0.07700
Br434      Br  0.42049162  0.83904219  0.05451038    -0.02900
C435        C  0.46341894  0.81123648  0.33731733    -0.09500
C436        C  0.98779792  0.83384676  0.38469134     0.06700
C437        C  0.99899681  0.88221138  0.39283277    -0.03300
C438        C  0.99275550  0.90972607  0.35067424    -0.07700
C439        C  0.98467230  0.89483820  0.29680453     0.05800
C440        C  0.46066123  0.83902514  0.29368826    -0.02800
Br441      Br  0.42691955  0.78981979  0.23560440    -0.02500
H442        H  0.44886767  0.77154725  0.33350789     0.09700
H443        H  0.99095639  0.94171441  0.36026718     0.07700
Br444      Br  0.01185634  0.90518557  0.46432604    -0.02900
C445        C  0.04702114  0.66216986  0.38391365    -0.09500
C446        C  0.50211364  0.65880840  0.39303772     0.06700
C447        C  0.46427992  0.63366720  0.35468771    -0.03300
C448        C  0.47064176  0.60737862  0.31382685    -0.07700
C449        C  0.51194883  0.60078831  0.30734678     0.06100
C450        C  0.05370559  0.64112541  0.33772024    -0.02800
Br451      Br  0.11976616  0.68769028  0.31591755    -0.02500
H452        H  0.07918671  0.68806908  0.40830621     0.09700
H453        H  0.44514324  0.59805109  0.28040940     0.07700
Br454      Br  0.41184110  0.64819638  0.34479558    -0.02900
C455        C  0.98815067  0.66783088  0.17035013    -0.09500
C456        C  0.50277259  0.66422931  0.12059842     0.06700
C457        C  0.51948943  0.63195327  0.11351053    -0.03300
C458        C  0.52113326  0.60317690  0.15601304    -0.07700
C459        C  0.51014675  0.60587301  0.20974302     0.05800
C460        C  0.00158430  0.64851235  0.21454413    -0.02800
Br461      Br  0.03006148  0.70581899  0.26324936    -0.02500
H462        H  0.97614437  0.69446495  0.17546698     0.09700
H463        H  0.52319812  0.57289175  0.14429371     0.07700
Br464      Br  0.53028458  0.61917345  0.04407801    -0.02900
C465        C  0.38084924  0.90722632  0.09814885    -0.09500
C466        C  0.33307947  0.86598671  0.10364050     0.06700
C467        C  0.31596620  0.85602261  0.15532936    -0.03300
C468        C  0.34809385  0.87897722  0.20004567    -0.07700
C469        C  0.39982266  0.91729224  0.19831656     0.05800
C470        C  0.41197229  0.93290598  0.14403304    -0.02800
Br471      Br  0.47437108  0.98262395  0.13029532    -0.02500
H472        H  0.39510330  0.91821515  0.05827066     0.09700
H473        H  0.32861115  0.86623864  0.23610511     0.07700
Br474      Br  0.24693397  0.81402140  0.16668519    -0.02900
C475        C  0.33568527  0.88085419  0.36399032    -0.09500
C476        C  0.31742627  0.82957995  0.36303703     0.06700
C477        C  0.34041142  0.81410002  0.32705428    -0.03300
C478        C  0.37810992  0.84985895  0.29378419    -0.07700
C479        C  0.40198934  0.90294730  0.30037758     0.05800
C480        C  0.38509485  0.91207250  0.34910099    -0.02800
Br481      Br  0.40869723  0.90060840  0.41924094    -0.02500
H482        H  0.32089843  0.89491498  0.39292880     0.09700
H483        H  0.38363077  0.83617781  0.25770129     0.07700
Br484      Br  0.32015517  0.74547908  0.32010031    -0.02900
C485        C  0.08965620  0.58022589  0.34830584    -0.09500
C486        C  0.10676260  0.58326941  0.29722501     0.06700
C487        C  0.16214752  0.61126355  0.29943081    -0.03300
C488        C  0.19044138  0.63630411  0.34688047    -0.07700
C489        C  0.16862281  0.63787709  0.39303088     0.05800
C490        C  0.11804361  0.60662790  0.39408512    -0.02800
Br491      Br  0.08625539  0.60279087  0.45649831    -0.02500
H492        H  0.05160207  0.55854078  0.35023142     0.09700
H493        H  0.23042918  0.65850205  0.34730219     0.07700
Br494      Br  0.21286174  0.63039310  0.24784210    -0.02900
C495        C  0.10303730  0.58592365  0.14621967    -0.09500
C496        C  0.09912045  0.59830344  0.19994002     0.06700
C497        C  0.13158433  0.65227621  0.20726467    -0.03300
C498        C  0.17350840  0.68122289  0.17553822    -0.07700
C499        C  0.17605595  0.66542092  0.12468873     0.05800
C500        C  0.14146247  0.61668871  0.11159623    -0.02800
Br501      Br  0.15355994  0.59003119  0.05059009    -0.02500
H502        H  0.07542567  0.55163382  0.12995182     0.09700
H503        H  0.20275140  0.71742926  0.18925289     0.07700
Br504      Br  0.11397092  0.70223831  0.19012960    -0.02900
O505        O  0.26462973  0.82180607  0.53756305    -0.72100
O506        O  0.18250108  0.70648823  0.94877606    -0.72400
O507        O  0.19163496  0.72686132  0.55631388    -0.72200
O508        O  0.25450659  0.80032513  0.92945173    -0.72200
O509        O  0.30975927  0.77867835  0.94030688    -0.72200
O510        O  0.24387311  0.70104713  0.56376256    -0.72200
O511        O  0.23824603  0.68517409  0.95514951    -0.72200
O512        O  0.31636351  0.79604773  0.54914761    -0.72300
V513        V  0.22433802  0.76343704  0.49326701     1.35200
V514        V  0.27618071  0.74097129  0.00216205     1.35200
C515        C  0.30440392  0.82782413  0.55995219     0.77100
C516        C  0.19736929  0.67757493  0.93476469     0.77200
C517        C  0.20640571  0.70068416  0.58123350     0.77000
C518        C  0.29186251  0.80044042  0.91204180     0.77000
O519        O  0.45937293  0.77327124  0.55253541    -0.72100
O520        O  0.45966965  0.68252593  0.95319067    -0.72400
O521        O  0.46114843  0.68982716  0.56020538    -0.72200
O522        O  0.45452123  0.76556240  0.94438955    -0.72200
O523        O  0.03451511  0.81447205  0.94943110    -0.72200
O524        O  0.04137828  0.72874157  0.55635793    -0.72200
O525        O  0.03932660  0.73063094  0.94902494    -0.72200
O526        O  0.03968277  0.81322394  0.55804029    -0.72300
V527        V  0.46020723  0.72876188  0.50245145     1.35200
V528        V  0.03732451  0.77104423  0.00303423     1.35200
C529        C  0.99962982  0.80760327  0.57376275     0.77100
C530        C  0.50004117  0.69166235  0.93367544     0.77200
C531        C  0.50192897  0.69565257  0.57722680     0.77000
C532        C  0.99277015  0.80351553  0.92797855     0.77000
O533        O  0.30181812  0.53534317  0.56269928    -0.72100
O534        O  0.22303405  0.52977229  0.93970937    -0.72400
O535        O  0.21497880  0.52909823  0.54708843    -0.72200
O536        O  0.31237787  0.53782811  0.95570652    -0.72200
O537        O  0.28041972  0.95859901  0.95495013    -0.72200
O538        O  0.18099993  0.95017479  0.54701572    -0.72200
O539        O  0.19099569  0.95071422  0.93846445    -0.72200
O540        O  0.26887776  0.95639678  0.56221143    -0.72300
V541        V  0.26228593  0.53129287  0.50112576     1.35200
V542        V  0.23089821  0.95542058  0.00047285     1.35200
C543        C  0.30175068  0.99776832  0.58162966     0.77100
C544        C  0.19407982  0.98981156  0.91895686     0.77200
C545        C  0.18540896  0.98974593  0.56598639     0.77000
C546        C  0.31383226  0.00060473  0.93784080     0.77000
C547        C  0.99295336  0.93531058  0.74792252    -0.02900
C548        C  0.50785779  0.56439379  0.75614279    -0.02900
C549        C  0.06361540  0.55670910  0.74763195    -0.02900
C550        C  0.05560758  0.99160851  0.74111952    -0.02900
C551        C  0.44355451  0.50531130  0.76013659    -0.02900
C552        C  0.43827662  0.94307831  0.75226560    -0.02900
C553        C  0.41211546  0.52978004  0.66659984    -0.09500
C554        C  0.40010880  0.50222335  0.71443436     0.06700
C555        C  0.34769977  0.96990852  0.71360656    -0.03300
C556        C  0.31622530  0.96977462  0.67118914    -0.07700
C557        C  0.32994829  0.49890811  0.62929101     0.05800
C558        C  0.38020801  0.52945658  0.62575608    -0.02800
Br559      Br  0.40672072  0.56133315  0.55841202    -0.02500
H560        H  0.44486384  0.54156712  0.65190542     0.09700
H561        H  0.27637095  0.94578119  0.67283123     0.07700
Br562      Br  0.30386908  0.92640897  0.76882877    -0.02900
C563        C  0.39077380  0.50303006  0.91223656    -0.09500
C564        C  0.34818801  0.50498980  0.89919205     0.06700
C565        C  0.34589767  0.02034903  0.84587745    -0.03300
C566        C  0.37705096  0.52397957  0.80897564    -0.07700
C567        C  0.41462839  0.50944639  0.81487574     0.05800
C568        C  0.42521770  0.50926222  0.87258861    -0.02800
Br569      Br  0.48205259  0.51543293  0.90724761    -0.02500
H570        H  0.39803600  0.49792433  0.95412460     0.09700
H571        H  0.37160709  0.54038899  0.77274223     0.07700
Br572      Br  0.29654184  0.03695687  0.82425838    -0.02900
C573        C  0.16479617  0.97438123  0.82309328    -0.09500
C574        C  0.16034858  0.98703296  0.87402254     0.06700
C575        C  0.11926170  0.49359332  0.88202489    -0.03300
C576        C  0.08650726  0.49006998  0.83997408    -0.07700
C577        C  0.09262796  0.98329917  0.78603421     0.05800
C578        C  0.13323338  0.97211773  0.77955251    -0.02800
Br579      Br  0.15397146  0.94586077  0.72186740    -0.02500
H580        H  0.19331005  0.96525450  0.81806705     0.09700
H581        H  0.05814160  0.49557600  0.85098488     0.07700
Br582      Br  0.11153020  0.50972955  0.95188737    -0.02900
C583        C  0.10280363  0.95195270  0.60977179    -0.09500
C584        C  0.15246876  0.98951539  0.60786549     0.06700
C585        C  0.16676927  0.52658908  0.64580102    -0.03300
C586        C  0.13437811  0.52531126  0.68454187    -0.07700
C587        C  0.08473531  0.99206738  0.68527259     0.05800
C588        C  0.06917249  0.96081039  0.63703020    -0.02800
Br589      Br  0.04937932  0.97627771  0.56849857    -0.02500
H590        H  0.08932324  0.92140636  0.58120994     0.09700
H591        H  0.14993754  0.54696733  0.71905715     0.07700
Br592      Br  0.23702502  0.57041488  0.65738315    -0.02900
C593        C  0.03068940  0.85127200  0.66198287    -0.09500
C594        C  0.99967227  0.83989485  0.61637688     0.06700
C595        C  0.46438385  0.85379175  0.61538974    -0.03300
C596        C  0.45894607  0.87673895  0.65973625    -0.07700
C597        C  0.99404604  0.89816659  0.70303150     0.05800
C598        C  0.02794633  0.87785146  0.70564680    -0.02800
Br599      Br  0.05799727  0.86246610  0.76829532    -0.02500
H600        H  0.05533646  0.83654392  0.66487977     0.09700
H601        H  0.42101841  0.86285670  0.66562003     0.07700
Br602      Br  0.42049353  0.83904033  0.55452117    -0.02900
C603        C  0.46339824  0.81123418  0.83731485    -0.09500
C604        C  0.98780164  0.83385224  0.88469914     0.06700
C605        C  0.99898234  0.88221145  0.89283728    -0.03300
C606        C  0.99274559  0.90972201  0.85067166    -0.07700
C607        C  0.98467784  0.89483415  0.79680260     0.05800
C608        C  0.46064539  0.83902833  0.79368831    -0.02800
Br609      Br  0.42690495  0.78982748  0.73559998    -0.02500
H610        H  0.44883468  0.77154288  0.83350471     0.09700
H611        H  0.99094194  0.94170965  0.86025650     0.07700
Br612      Br  0.01181483  0.90518535  0.96432968    -0.02900
C613        C  0.04704808  0.66220779  0.88388839    -0.09500
C614        C  0.50209072  0.65878573  0.89303341     0.06700
C615        C  0.46427327  0.63366539  0.85466233    -0.03300
C616        C  0.47064438  0.60738027  0.81380576    -0.07700
C617        C  0.51194921  0.60077967  0.80735008     0.06100
C618        C  0.05371520  0.64115214  0.83769194    -0.02800
Br619      Br  0.11976686  0.68771326  0.81586793    -0.02500
H620        H  0.07922148  0.68811763  0.90826416     0.09700
H621        H  0.44515259  0.59805266  0.78037950     0.07700
Br622      Br  0.41185309  0.64821906  0.84474624    -0.02900
C623        C  0.98807401  0.66777591  0.67032799    -0.09500
C624        C  0.50283869  0.66427871  0.62061832     0.06700
C625        C  0.51954533  0.63199522  0.61352547    -0.03300
C626        C  0.52117169  0.60320259  0.65602101    -0.07700
C627        C  0.51018343  0.60589273  0.70975223     0.05800
C628        C  0.00152200  0.64847481  0.71452679    -0.02800
Br629      Br  0.02999501  0.70579372  0.76321682    -0.02500
H630        H  0.97605811  0.69440306  0.67543971     0.09700
H631        H  0.52322155  0.57291273  0.64429195     0.07700
Br632      Br  0.53033584  0.61921843  0.54409157    -0.02900
C633        C  0.38084687  0.90723067  0.59814476    -0.09500
C634        C  0.33307414  0.86599777  0.60363736     0.06700
C635        C  0.31596030  0.85604016  0.65532617    -0.03300
C636        C  0.34808934  0.87899436  0.70004223    -0.07700
C637        C  0.39982069  0.91730195  0.69831305     0.05800
C638        C  0.41197080  0.93291145  0.64402770    -0.02800
Br639      Br  0.47436786  0.98262581  0.63027924    -0.02500
H640        H  0.39510148  0.91821477  0.55826657     0.09700
H641        H  0.32860720  0.86626092  0.73610284     0.07700
Br642      Br  0.24692666  0.81404995  0.66668100    -0.02900
C643        C  0.33569285  0.88086201  0.86400080    -0.09500
C644        C  0.31742814  0.82958686  0.86303937     0.06700
C645        C  0.34040366  0.81410639  0.82704444    -0.03300
C646        C  0.37810057  0.84986605  0.79377434    -0.07700
C647        C  0.40198736  0.90295360  0.80037604     0.05800
C648        C  0.38510179  0.91207690  0.84910754    -0.02800
Br649      Br  0.40871151  0.90060686  0.91924149    -0.02500
H650        H  0.32091281  0.89492211  0.89294794     0.09700
H651        H  0.38361684  0.83618677  0.75768737     0.07700
Br652      Br  0.32013210  0.74548400  0.82006565    -0.02900
C653        C  0.08965088  0.58024096  0.84828953    -0.09500
C654        C  0.10675520  0.58328348  0.79720786     0.06700
C655        C  0.16213974  0.61128087  0.79940926    -0.03300
C656        C  0.19043571  0.63631446  0.84686065    -0.07700
C657        C  0.16861933  0.63788761  0.89301282     0.05800
C658        C  0.11803968  0.60664404  0.89406618    -0.02800
Br659      Br  0.08625185  0.60280295  0.95647941    -0.02500
H660        H  0.05159710  0.55855364  0.85022090     0.09700
H661        H  0.23042382  0.65850809  0.84728254     0.07700
Br662      Br  0.21284962  0.63042964  0.74781207    -0.02900
C663        C  0.10302979  0.58593193  0.64620685    -0.09500
C664        C  0.09910221  0.59831135  0.69992323     0.06700
C665        C  0.13154627  0.65228705  0.70723965    -0.03300
C666        C  0.17347441  0.68124139  0.67552307    -0.07700
C667        C  0.17604557  0.66543448  0.62468617     0.05800
C668        C  0.14146330  0.61669895  0.61159196    -0.02800
Br669      Br  0.15358394  0.59004682  0.55059367    -0.02500
H670        H  0.07542444  0.55164032  0.62993911     0.09700
H671        H  0.20270162  0.71745576  0.68923417     0.07700
Br672      Br  0.11390687  0.70222827  0.69008074    -0.02900
O673        O  0.76377249  0.32101740  0.03791720    -0.72100
O674        O  0.68098988  0.20437970  0.45153978    -0.72400
O675        O  0.69245838  0.22612690  0.05857993    -0.72200
O676        O  0.75266204  0.29877821  0.43012947    -0.72200
O677        O  0.80862827  0.27802692  0.44034055    -0.72200
O678        O  0.74550719  0.20129170  0.06489707    -0.72200
O679        O  0.73752147  0.18410405  0.45683787    -0.72200
O680        O  0.81643394  0.29636900  0.04896780    -0.72300
V681        V  0.72350738  0.26215468  0.99466716     1.35200
V682        V  0.77612444  0.24068132  0.50273104     1.35200
C683        C  0.80381215  0.32761537  0.06001061     0.77100
C684        C  0.69579199  0.17538882  0.43781236     0.77200
C685        C  0.70821883  0.20060010  0.08315905     0.77000
C686        C  0.79042472  0.29970872  0.41254825     0.77000
O687        O  0.95793872  0.27235111  0.05147082    -0.72100
O688        O  0.96035499  0.18201103  0.45299204    -0.72400
O689        O  0.96195474  0.18977559  0.06001612    -0.72200
O690        O  0.95327355  0.26406133  0.44332228    -0.72200
O691        O  0.53313836  0.31369156  0.44765327    -0.72200
O692        O  0.54225048  0.23083609  0.05661562    -0.72200
O693        O  0.53987527  0.23081242  0.44907520    -0.72200
O694        O  0.53833380  0.31409236  0.05622928    -0.72300
V695        V  0.95989882  0.22802668  0.00181188     1.35200
V696        V  0.53693194  0.27155890  0.50219374     1.35200
C697        C  0.49797964  0.30757178  0.07218984     0.77100
C698        C  0.00094874  0.19150695  0.43376869     0.77200
C699        C  0.00315662  0.19673908  0.07733514     0.77000
C700        C  0.49116365  0.30220092  0.42648110     0.77000
O701        O  0.80736093  0.03721123  0.05995472    -0.72100
O702        O  0.72463886  0.03113220  0.44078749    -0.72400
O703        O  0.71963116  0.03076376  0.04868091    -0.72200
O704        O  0.81384164  0.03895829  0.45276579    -0.72200
O705        O  0.77746610  0.45733180  0.45506003    -0.72200
O706        O  0.67808993  0.44855262  0.04790581    -0.72200
O707        O  0.68747677  0.44914856  0.43916793    -0.72200
O708        O  0.76583694  0.45468457  0.06279407    -0.72300
V709        V  0.76556264  0.03286149  0.00045889     1.35200
V710        V  0.72779970  0.45386300  0.50098082     1.35200
C711        C  0.79692172  0.49597635  0.08387703     0.77100
C712        C  0.69145414  0.48836070  0.41873210     0.77200
C713        C  0.68164651  0.48819082  0.06550651     0.77000
C714        C  0.81198786  0.49957680  0.43962013     0.77000
C715        C  0.49079833  0.43505768  0.24736097    -0.02900
C716        C  0.00969284  0.06426343  0.25579335    -0.02900
C717        C  0.56539948  0.05647213  0.24847550    -0.02900
C718        C  0.55345601  0.49160688  0.24047903    -0.02900
C719        C  0.94549868  0.00526254  0.25965473    -0.02900
C720        C  0.93630600  0.44305793  0.25252606    -0.02900
C721        C  0.91599935  0.03032950  0.16566674    -0.09500
C722        C  0.90288490  0.00262181  0.21334858     0.06700
C723        C  0.84491911  0.46920491  0.21558136    -0.03300
C724        C  0.81254976  0.46831268  0.17363437    -0.07700
C725        C  0.83460809  0.00017716  0.12678473     0.05800
C726        C  0.88509999  0.02996240  0.12372344    -0.02800
Br727      Br  0.91422976  0.06143021  0.05685264    -0.02500
H728        H  0.94952306  0.04326453  0.15256243     0.09700
H729        H  0.77281081  0.44370982  0.17566633     0.07700
Br730      Br  0.80203010  0.42588548  0.27135695    -0.02900
C731        C  0.89151054  0.00267711  0.41089154    -0.09500
C732        C  0.84951445  0.00538585  0.39749039     0.06700
C733        C  0.84459642  0.52037364  0.34771949    -0.03300
C734        C  0.87844501  0.02369623  0.30747890    -0.07700
C735        C  0.91596314  0.00910018  0.31388031     0.05800
C736        C  0.92595158  0.00854061  0.37162948    -0.02800
Br737      Br  0.98123780  0.01252080  0.40708429    -0.02500
H738        H  0.89822002  0.99717613  0.45284105     0.09700
H739        H  0.87332687  0.04023818  0.27116469     0.07700
Br740      Br  0.79527586  0.53717560  0.32676681    -0.02900
C741        C  0.66206268  0.47318288  0.32265763    -0.09500
C742        C  0.65767878  0.48578043  0.37366035     0.06700
C743        C  0.62149964  0.99396838  0.38268128    -0.03300
C744        C  0.58847339  0.98985861  0.34077459    -0.07700
C745        C  0.59047477  0.48314423  0.28531888     0.05800
C746        C  0.63077440  0.47146327  0.27897251    -0.02800
Br747      Br  0.65186563  0.44570169  0.22121994    -0.02500
H748        H  0.69055847  0.46400041  0.31763481     0.09700
H749        H  0.55994178  0.99485529  0.35208515     0.07700
Br750      Br  0.61346491  0.00936119  0.45285913    -0.02900
C751        C  0.59917103  0.45163016  0.10881227    -0.09500
C752        C  0.64903732  0.48842203  0.10730754     0.06700
C753        C  0.66947111  0.02769232  0.14624205    -0.03300
C754        C  0.63682401  0.02541463  0.18527339    -0.07700
C755        C  0.58223411  0.49226139  0.18447071     0.05800
C756        C  0.56609851  0.46124712  0.13597401    -0.02800
Br757      Br  0.54699059  0.47758756  0.06716101    -0.02500
H758        H  0.58532687  0.42134596  0.07986439     0.09700
H759        H  0.65194790  0.04741915  0.21941863     0.07700
Br760      Br  0.73916595  0.07514572  0.15573173    -0.02900
C761        C  0.52835420  0.35099749  0.16045197    -0.09500
C762        C  0.49753479  0.33968655  0.11479559     0.06700
C763        C  0.96235222  0.35371985  0.11363376    -0.03300
C764        C  0.95654793  0.37634472  0.15828840    -0.07700
C765        C  0.49158343  0.39774683  0.20194131     0.05800
C766        C  0.52551927  0.37746444  0.20416761    -0.02800
Br767      Br  0.55553140  0.36151074  0.26622616    -0.02500
H768        H  0.55310070  0.33637589  0.16322313     0.09700
H769        H  0.91861325  0.36282005  0.16376745     0.07700
Br770      Br  0.92055571  0.34095931  0.05117673    -0.02900
C771        C  0.96119319  0.31040946  0.33609177    -0.09500
C772        C  0.48572246  0.33265218  0.38353923     0.06700
C773        C  0.49741808  0.38115895  0.39204298    -0.03300
C774        C  0.49129028  0.40911780  0.35022424    -0.07700
C775        C  0.48272451  0.39440645  0.29614533     0.05800
C776        C  0.95846803  0.33854730  0.29274810    -0.02800
Br777      Br  0.92399492  0.28950830  0.23461582    -0.02500
H778        H  0.94647665  0.27071350  0.33199605     0.09700
H779        H  0.48990214  0.44126747  0.36040784     0.07700
Br780      Br  0.51178483  0.40409807  0.46367979    -0.02900
C781        C  0.54856450  0.16257200  0.38410048    -0.09500
C782        C  0.00348654  0.15867062  0.39332319     0.06700
C783        C  0.96571244  0.13282487  0.35520528    -0.03300
C784        C  0.97242931  0.10683567  0.31437999    -0.07700
C785        C  0.01395511  0.10095712  0.30720817     0.06100
C786        C  0.55547695  0.14163579  0.33786396    -0.02800
Br787      Br  0.62232666  0.18751044  0.31874409    -0.02500
H788        H  0.58048377  0.18838316  0.40887995     0.09700
H789        H  0.94676217  0.09733685  0.28135503     0.07700
Br790      Br  0.91228908  0.14568428  0.34530541    -0.02900
C791        C  0.48353476  0.16177195  0.16837159    -0.09500
C792        C  0.00485384  0.16500394  0.12030772     0.06700
C793        C  0.02868507  0.13871659  0.11487377    -0.03300
C794        C  0.02619565  0.10585873  0.15520144    -0.07700
C795        C  0.01207505  0.10553046  0.20878993     0.05800
C796        C  0.49911221  0.14485902  0.21309316    -0.02800
Br797      Br  0.52847309  0.20341292  0.25985544    -0.02500
H798        H  0.46716774  0.18465299  0.17359603     0.09700
H799        H  0.02813261  0.07593269  0.14113615     0.07700
Br800      Br  0.06839680  0.15055575  0.05584696    -0.02900
C801        C  0.87937508  0.40722304  0.09855384    -0.09500
C802        C  0.83183828  0.36575206  0.10376965     0.06700
C803        C  0.81410299  0.35591860  0.15522871    -0.03300
C804        C  0.84589502  0.37888798  0.20024916    -0.07700
C805        C  0.89766883  0.41718855  0.19873531     0.05800
C806        C  0.90988659  0.43298413  0.14464338    -0.02800
Br807      Br  0.97217200  0.48200340  0.13162129    -0.02500
H808        H  0.89394218  0.41831046  0.05881163     0.09700
H809        H  0.82629518  0.36609001  0.23624521     0.07700
Br810      Br  0.74475844  0.31443264  0.16555467    -0.02900
C811        C  0.83474792  0.38094490  0.36579544    -0.09500
C812        C  0.81631025  0.32969028  0.36406353     0.06700
C813        C  0.83859240  0.31431257  0.32710668    -0.03300
C814        C  0.87627070  0.35014926  0.29399017    -0.07700
C815        C  0.90033627  0.40315455  0.30083355     0.05800
C816        C  0.88375933  0.41250043  0.34971355    -0.02800
Br817      Br  0.90873345  0.40296313  0.41972151    -0.02500
H818        H  0.82016418  0.39475846  0.39527799     0.09700
H819        H  0.88163917  0.33659494  0.25772115     0.07700
Br820      Br  0.81586874  0.24540660  0.31698601    -0.02900
C821        C  0.58873078  0.07865000  0.34980570    -0.09500
C822        C  0.60712534  0.08238780  0.29921598     0.06700
C823        C  0.66232483  0.10963520  0.30297965    -0.03300
C824        C  0.68958594  0.13373069  0.35113273    -0.07700
C825        C  0.66689276  0.13529127  0.39660175     0.05800
C826        C  0.61596798  0.10429584  0.39655052    -0.02800
Br827      Br  0.58169315  0.09836890  0.45839876    -0.02500
H828        H  0.55063129  0.05664740  0.35042759     0.09700
H829        H  0.72965890  0.15558032  0.35253297     0.07700
Br830      Br  0.71395055  0.12888775  0.25273786    -0.02900
C831        C  0.60600158  0.08586922  0.14799076    -0.09500
C832        C  0.60172187  0.09827085  0.20156976     0.06700
C833        C  0.63461211  0.15223732  0.20926125    -0.03300
C834        C  0.67678515  0.18095643  0.17783591    -0.07700
C835        C  0.67899418  0.16525749  0.12687931     0.05800
C836        C  0.64457561  0.11654545  0.11367279    -0.02800
Br837      Br  0.65481689  0.09049121  0.05086429    -0.02500
H838        H  0.57831878  0.05164638  0.13127065     0.09700
H839        H  0.70563338  0.21766060  0.19087494     0.07700
Br840      Br  0.61708556  0.20274128  0.19552449    -0.02900
O841        O  0.76375469  0.32101962  0.53792748    -0.72100
O842        O  0.68099588  0.20436638  0.95155104    -0.72400
O843        O  0.69243866  0.22612767  0.55856920    -0.72200
O844        O  0.75266491  0.29875969  0.93012473    -0.72200
O845        O  0.80864336  0.27802591  0.94034560    -0.72200
O846        O  0.74550001  0.20130867  0.56490253    -0.72200
O847        O  0.73753480  0.18410061  0.95682646    -0.72200
O848        O  0.81642639  0.29638279  0.54895929    -0.72300
V849        V  0.72349594  0.26216370  0.49466495     1.35200
V850        V  0.77613551  0.24067220  0.00273047     1.35200
C851        C  0.80379848  0.32762152  0.56001360     0.77100
C852        C  0.69580143  0.17538224  0.93780934     0.77200
C853        C  0.70820438  0.20060856  0.58315487     0.77000
C854        C  0.79043300  0.29969854  0.91254806     0.77000
O855        O  0.95795512  0.27235877  0.55148066    -0.72100
O856        O  0.96034477  0.18200925  0.95297476    -0.72400
O857        O  0.96198040  0.18978985  0.56003134    -0.72200
O858        O  0.95327169  0.26406506  0.94331174    -0.72200
O859        O  0.53313851  0.31369689  0.94765831    -0.72200
O860        O  0.54222711  0.23082597  0.55661841    -0.72200
O861        O  0.53988261  0.23082239  0.94907320    -0.72200
O862        O  0.53831802  0.31408413  0.55622327    -0.72300
V863        V  0.95991238  0.22803182  0.50182510     1.35200
V864        V  0.53694402  0.27156771  0.00219571     1.35200
C865        C  0.49796350  0.30756290  0.57218263     0.77100
C866        C  0.00094103  0.19150128  0.93376106     0.77200
C867        C  0.00318439  0.19675184  0.57733966     0.77000
C868        C  0.49116089  0.30219932  0.92648834     0.77000
O869        O  0.80735708  0.03720611  0.55995722    -0.72100
O870        O  0.72464960  0.03114295  0.94077944    -0.72400
O871        O  0.71962681  0.03075606  0.54868835    -0.72200
O872        O  0.81385023  0.03896314  0.95276419    -0.72200
O873        O  0.77746794  0.45733177  0.95506217    -0.72200
O874        O  0.67807578  0.44854400  0.54789145    -0.72200
O875        O  0.68747291  0.44913694  0.93918042    -0.72200
O876        O  0.76581561  0.45466459  0.56279339    -0.72300
V877        V  0.76555585  0.03285406  0.50046375     1.35200
V878        V  0.72780763  0.45386725  0.00098808     1.35200
C879        C  0.79690360  0.49595264  0.58388166     0.77100
C880        C  0.69145139  0.48834460  0.91873041     0.77200
C881        C  0.68163934  0.48818072  0.56550753     0.77000
C882        C  0.81199105  0.49957564  0.93962215     0.77000
C883        C  0.49079352  0.43505157  0.74736273    -0.02900
C884        C  0.00969884  0.06425802  0.75579200    -0.02900
C885        C  0.56539394  0.05647854  0.74847230    -0.02900
C886        C  0.55345422  0.49159552  0.74048445    -0.02900
C887        C  0.94550360  0.00525731  0.75965256    -0.02900
C888        C  0.93630553  0.44305485  0.75252645    -0.02900
C889        C  0.91600449  0.03033569  0.66566733    -0.09500
C890        C  0.90289125  0.00261749  0.71334425     0.06700
C891        C  0.84490564  0.46919563  0.71559439    -0.03300
C892        C  0.81253161  0.46830300  0.67365154    -0.07700
C893        C  0.83461074  0.00017501  0.62678493     0.05800
C894        C  0.88510172  0.02997454  0.62373011    -0.02800
Br895      Br  0.91422856  0.06147812  0.55687098    -0.02500
H896        H  0.94952726  0.04327511  0.65255636     0.09700
H897        H  0.77279175  0.44371196  0.67569548     0.07700
Br898      Br  0.80202421  0.42587762  0.77137596    -0.02900
C899        C  0.89151704  0.00267977  0.91089203    -0.09500
C900        C  0.84951917  0.00538443  0.89749006     0.06700
C901        C  0.84459271  0.52036140  0.84772175    -0.03300
C902        C  0.87844479  0.02368495  0.80747550    -0.07700
C903        C  0.91596737  0.00909487  0.81387891     0.05800
C904        C  0.92595679  0.00853922  0.87162983    -0.02800
Br905      Br  0.98124022  0.01251799  0.90709285    -0.02500
H906        H  0.89822750  0.99718275  0.95284220     0.09700
H907        H  0.87332433  0.04022419  0.77116074     0.07700
Br908      Br  0.79525167  0.53713080  0.82675500    -0.02900
C909        C  0.66204880  0.47314995  0.82265849    -0.09500
C910        C  0.65767102  0.48575503  0.87366055     0.06700
C911        C  0.62151229  0.99398540  0.88267502    -0.03300
C912        C  0.58847983  0.98987062  0.84077322    -0.07700
C913        C  0.59046780  0.48312327  0.78532236     0.05800
C914        C  0.63076062  0.47143270  0.77897430    -0.02800
Br915      Br  0.65184357  0.44566594  0.72121795    -0.02500
H916        H  0.69054000  0.46396150  0.81763452     0.09700
H917        H  0.55994925  0.99486710  0.85208812     0.07700
Br918      Br  0.61348353  0.00938072  0.95285329    -0.02900
C919        C  0.59916176  0.45162106  0.60880818    -0.09500
C920        C  0.64902953  0.48840797  0.60730956     0.06700
C921        C  0.66947072  0.02768565  0.64625161    -0.03300
C922        C  0.63682340  0.02541580  0.68527780    -0.07700
C923        C  0.58222987  0.49224860  0.68447555     0.05800
C924        C  0.56609202  0.46123718  0.63597659    -0.02800
Br925      Br  0.54696799  0.47757183  0.56717196    -0.02500
H926        H  0.58531571  0.42134104  0.57985401     0.09700
H927        H  0.65195125  0.04741576  0.71942726     0.07700
Br928      Br  0.73916945  0.07511433  0.65576301    -0.02900
C929        C  0.52833568  0.35098148  0.66044866    -0.09500
C930        C  0.49751954  0.33967656  0.61479075     0.06700
C931        C  0.96235919  0.35371860  0.61364114    -0.03300
C932        C  0.95655372  0.37634246  0.65829495    -0.07700
C933        C  0.49157325  0.39773822  0.70194055     0.05800
C934        C  0.52550314  0.37744860  0.70416580    -0.02800
Br935      Br  0.55550804  0.36148308  0.76622223    -0.02500
H936        H  0.55307818  0.33635483  0.66321937     0.09700
H937        H  0.91861908  0.36281649  0.66377753     0.07700
Br938      Br  0.92054358  0.34093509  0.55119647    -0.02900
C939        C  0.96120579  0.31041453  0.83608382    -0.09500
C940        C  0.48571206  0.33264714  0.88354657     0.06700
C941        C  0.49740817  0.38115419  0.89204955    -0.03300
C942        C  0.49128097  0.40911312  0.85022926    -0.07700
C943        C  0.48271628  0.39440094  0.79614982     0.05800
C944        C  0.95847916  0.33855198  0.79274140    -0.02800
Br945      Br  0.92400943  0.28951116  0.73461033    -0.02500
H946        H  0.94649101  0.27071903  0.83198805     0.09700
H947        H  0.48989662  0.44126575  0.86041089     0.07700
Br948      Br  0.51177725  0.40409237  0.96368802    -0.02900
C949        C  0.54856741  0.16257720  0.88410451    -0.09500
C950        C  0.00348237  0.15866588  0.89331523     0.06700
C951        C  0.96571000  0.13281757  0.85519551    -0.03300
C952        C  0.97243030  0.10682951  0.81437140    -0.07700
C953        C  0.01395711  0.10095080  0.80720555     0.06100
C954        C  0.55547700  0.14164302  0.83786466    -0.02800
Br955      Br  0.62232654  0.18751815  0.81874577    -0.02500
H956        H  0.58048736  0.18838691  0.90888364     0.09700
H957        H  0.94676322  0.09732727  0.78134476     0.07700
Br958      Br  0.91227844  0.14566413  0.84529615    -0.02900
C959        C  0.48351170  0.16176571  0.66837072    -0.09500
C960        C  0.00488461  0.16501727  0.62031113     0.06700
C961        C  0.02870783  0.13872245  0.61487453    -0.03300
C962        C  0.02620921  0.10585816  0.65519983    -0.07700
C963        C  0.01208762  0.10552831  0.70878855     0.05800
C964        C  0.49909546  0.14485897  0.71309318    -0.02800
Br965      Br  0.52845176  0.20341407  0.75985621    -0.02500
H966        H  0.46714545  0.18464735  0.67359444     0.09700
H967        H  0.02813796  0.07592881  0.64113122     0.07700
Br968      Br  0.06841389  0.15055335  0.55584447    -0.02900
C969        C  0.87937026  0.40721565  0.59855677    -0.09500
C970        C  0.83182742  0.36575604  0.60377322     0.06700
C971        C  0.81409288  0.35592652  0.65523323    -0.03300
C972        C  0.84589013  0.37888700  0.70025384    -0.07700
C973        C  0.89766617  0.41718249  0.69873732     0.05800
C974        C  0.90988525  0.43297322  0.64464467    -0.02800
Br975      Br  0.97217778  0.48197575  0.63161841    -0.02500
H976        H  0.89393867  0.41829673  0.55881477     0.09700
H977        H  0.82629363  0.36608918  0.73625173     0.07700
Br978      Br  0.74474450  0.31446348  0.66555833    -0.02900
C979        C  0.83475287  0.38093521  0.86579865    -0.09500
C980        C  0.81631645  0.32968082  0.86406326     0.06700
C981        C  0.83860086  0.31430620  0.82710559    -0.03300
C982        C  0.87627571  0.35014480  0.79398731    -0.07700
C983        C  0.90033952  0.40314960  0.80083426     0.05800
C984        C  0.88376381  0.41249293  0.84971711    -0.02800
Br985      Br  0.90873561  0.40294808  0.91972407    -0.02500
H986        H  0.82016825  0.39474699  0.89528257     0.09700
H987        H  0.88164459  0.33659198  0.75771702     0.07700
Br988      Br  0.81589146  0.24540253  0.81699292    -0.02900
C989        C  0.58873272  0.07865823  0.84979758    -0.09500
C990        C  0.60712354  0.08239594  0.79920709     0.06700
C991        C  0.66232290  0.10964380  0.80296403    -0.03300
C992        C  0.68958836  0.13373107  0.85111873    -0.07700
C993        C  0.66689907  0.13528935  0.89659334     0.05800
C994        C  0.61597298  0.10429981  0.89654148    -0.02800
Br995      Br  0.58169570  0.09836976  0.95838708    -0.02500
H996        H  0.55063327  0.05665578  0.85042332     0.09700
H997        H  0.72966130  0.15557841  0.85251430     0.07700
Br998      Br  0.71393838  0.12891273  0.75270440    -0.02900
C999        C  0.60599942  0.08587371  0.64799162    -0.09500
C1000       C  0.60171298  0.09827775  0.70156616     0.06700
C1001       C  0.63459360  0.15224694  0.70925261    -0.03300
C1002       C  0.67676166  0.18097300  0.67782289    -0.07700
C1003       C  0.67898123  0.16526775  0.62687491     0.05800
C1004       C  0.64457326  0.11655116  0.61367401    -0.02800
Br1005     Br  0.65482561  0.09049602  0.55087162    -0.02500
H1006       H  0.57831732  0.05165029  0.63127229     0.09700
H1007       H  0.70560445  0.21768270  0.69085549     0.07700
Br1008     Br  0.61705814  0.20274545  0.69552996    -0.02900
O1009       O  0.76462805  0.82180339  0.03756336    -0.72100
O1010       O  0.68249917  0.70648528  0.44877720    -0.72400
O1011       O  0.69163338  0.72685826  0.05631361    -0.72200
O1012       O  0.75450464  0.80032252  0.42945166    -0.72200
O1013       O  0.80975769  0.77867635  0.44030687    -0.72200
O1014       O  0.74387228  0.70104501  0.06376239    -0.72200
O1015       O  0.73824473  0.68517203  0.45515024    -0.72200
O1016       O  0.81636248  0.79604577  0.04914663    -0.72300
V1017       V  0.72433653  0.76343454  0.99326687     1.35200
V1018       V  0.77617949  0.74096939  0.50216232     1.35200
C1019       C  0.80440260  0.82782182  0.05995189     0.77100
C1020       C  0.69736757  0.67757212  0.43476602     0.77200
C1021       C  0.70640463  0.70068156  0.08123336     0.77000
C1022       C  0.79186066  0.80043807  0.41204160     0.77000
O1023       O  0.95937496  0.77327188  0.05253556    -0.72100
O1024       O  0.95966846  0.68252722  0.45318828    -0.72400
O1025       O  0.96115144  0.68982821  0.06020295    -0.72200
O1026       O  0.95452113  0.76556437  0.44438927    -0.72200
O1027       O  0.53451316  0.81446993  0.44943252    -0.72200
O1028       O  0.54138009  0.72874247  0.05635942    -0.72200
O1029       O  0.53932392  0.73062820  0.44902632    -0.72200
O1030       O  0.53968307  0.81322396  0.05804068    -0.72300
V1031       V  0.96020966  0.72876371  0.00245027     1.35200
V1032       V  0.53732205  0.77104175  0.50303564     1.35200
C1033       C  0.49963001  0.80760299  0.07376325     0.77100
C1034       C  0.00003997  0.69166328  0.43367344     0.77200
C1035       C  0.00193216  0.69565448  0.07722475     0.77000
C1036       C  0.49276849  0.80351340  0.42797910     0.77000
O1037       O  0.80181708  0.53534313  0.06270068    -0.72100
O1038       O  0.72303500  0.52977270  0.43970981    -0.72400
O1039       O  0.71497773  0.52909726  0.04708815    -0.72200
O1040       O  0.81237890  0.53782889  0.45570821    -0.72200
O1041       O  0.78041927  0.95859794  0.45494972    -0.72200
O1042       O  0.68099974  0.95017457  0.04701503    -0.72200
O1043       O  0.69099543  0.95071314  0.43846380    -0.72200
O1044       O  0.76887744  0.95639675  0.06221095    -0.72300
V1045       V  0.76228582  0.53129285  0.00112630     1.35200
V1046       V  0.73089767  0.95541943  0.50047227     1.35200
C1047       C  0.80175056  0.99776835  0.08162884     0.77100
C1048       C  0.69407938  0.98981046  0.41895636     0.77200
C1049       C  0.68540902  0.98974560  0.06598639     0.77000
C1050       C  0.81383147  0.00060362  0.43784000     0.77000
C1051       C  0.49295371  0.93531037  0.24792282    -0.02900
C1052       C  0.00785883  0.56439569  0.25614214    -0.02900
C1053       C  0.56361453  0.55670741  0.24763302    -0.02900
C1054       C  0.55560792  0.99160814  0.24111958    -0.02900
C1055       C  0.94355548  0.50531301  0.26013660    -0.02900
C1056       C  0.93827548  0.94307734  0.25226531    -0.02900
C1057       C  0.91211609  0.52978154  0.16660014    -0.09500
C1058       C  0.90010909  0.50222445  0.21443483     0.06700
C1059       C  0.84769912  0.96990767  0.21360560    -0.03300
C1060       C  0.81622478  0.96977415  0.17118818    -0.07700
C1061       C  0.82994794  0.49890857  0.12929219     0.05800
C1062       C  0.88020744  0.52945763  0.12575711    -0.02800
Br1063     Br  0.90671900  0.56133469  0.05841309    -0.02500
H1064       H  0.94486412  0.54156920  0.15190650     0.09700
H1065       H  0.77637072  0.94578046  0.17282975     0.07700
Br1066     Br  0.80386808  0.92640799  0.26882735    -0.02900
C1067       C  0.89077585  0.50303209  0.41223703    -0.09500
C1068       C  0.84818969  0.50499132  0.39919315     0.06700
C1069       C  0.84589638  0.02034747  0.34587658    -0.03300
C1070       C  0.87705205  0.52398095  0.30897650    -0.07700
C1071       C  0.91462984  0.50944827  0.31487626     0.05800
C1072       C  0.92521963  0.50926444  0.37258898    -0.02800
Br1073     Br  0.98205468  0.51543534  0.40724782    -0.02500
H1074       H  0.89803885  0.49792712  0.45412511     0.09700
H1075       H  0.87160731  0.54038964  0.27274314     0.07700
Br1076     Br  0.79654006  0.03695426  0.32425701    -0.02900
C1077       C  0.66479510  0.97437906  0.32309310    -0.09500
C1078       C  0.66034834  0.98703204  0.37402205     0.06700
C1079       C  0.61926154  0.49359143  0.38202568    -0.03300
C1080       C  0.58650636  0.49006731  0.33997531    -0.07700
C1081       C  0.59262800  0.98329861  0.28603409     0.05800
C1082       C  0.63323246  0.97211582  0.27955239    -0.02800
Br1083     Br  0.65396980  0.94585825  0.22186718    -0.02500
H1084       H  0.69330893  0.96525234  0.31806676     0.09700
H1085       H  0.55814018  0.49557255  0.35098694     0.07700
Br1086     Br  0.61152970  0.50972566  0.45188906    -0.02900
C1087       C  0.60280404  0.95195220  0.10977233    -0.09500
C1088       C  0.65246913  0.98951485  0.10786592     0.06700
C1089       C  0.66676839  0.52658739  0.14580124    -0.03300
C1090       C  0.63437719  0.52530964  0.18454218    -0.07700
C1091       C  0.58473568  0.99206704  0.18527283     0.05800
C1092       C  0.56917281  0.96080974  0.13703070    -0.02800
Br1093     Br  0.54938034  0.97627693  0.06849839    -0.02500
H1094       H  0.58932364  0.92140518  0.08121068     0.09700
H1095       H  0.64993662  0.54696620  0.21905734     0.07700
Br1096     Br  0.73702416  0.57041292  0.15738363    -0.02900
C1097       C  0.53068919  0.85127107  0.16198339    -0.09500
C1098       C  0.49967229  0.83989438  0.11637737     0.06700
C1099       C  0.96438394  0.85379160  0.11538912    -0.03300
C1100       C  0.95894588  0.87673868  0.15973561    -0.07700
C1101       C  0.49404619  0.89816607  0.20303196     0.05800
C1102       C  0.52794612  0.87785047  0.20564735    -0.02800
Br1103     Br  0.55799613  0.86246409  0.26829603    -0.02500
H1104       H  0.55533628  0.83654330  0.16488003     0.09700
H1105       H  0.92101821  0.86285585  0.16561990     0.07700
Br1106     Br  0.92049251  0.83903807  0.05452106    -0.02900
C1107       C  0.96339937  0.81123484  0.33731451    -0.09500
C1108       C  0.48780055  0.83385058  0.38469949     0.06700
C1109       C  0.49898344  0.88221060  0.39283737    -0.03300
C1110       C  0.49274682  0.90972164  0.35067203    -0.07700
C1111       C  0.48467794  0.89483375  0.29680292     0.05800
C1112       C  0.96064593  0.83902842  0.29368781    -0.02800
Br1113     Br  0.92690622  0.78982739  0.23559964    -0.02500
H1114       H  0.94883703  0.77154400  0.33350448     0.09700
H1115       H  0.49094354  0.94170924  0.36025738     0.07700
Br1116     Br  0.51181849  0.90518529  0.46432961    -0.02900
C1117       C  0.54704529  0.66220344  0.38389222    -0.09500
C1118       C  0.00208985  0.65878685  0.39303139     0.06700
C1119       C  0.96427288  0.63366699  0.35465950    -0.03300
C1120       C  0.97064451  0.60738210  0.31380304    -0.07700
C1121       C  0.01194964  0.60078157  0.30734869     0.06100
C1122       C  0.55371325  0.64114879  0.33769560    -0.02800
Br1123     Br  0.61976494  0.68770999  0.31587216    -0.02500
H1124       H  0.57921845  0.68811233  0.40826924     0.09700
H1125       H  0.94515292  0.59805422  0.28037637     0.07700
Br1126     Br  0.91185261  0.64822050  0.34474309    -0.02900
C1127       C  0.48807734  0.66777838  0.17033075    -0.09500
C1128       C  0.00284185  0.66428105  0.12061658     0.06700
C1129       C  0.01954555  0.63199512  0.11352372    -0.03300
C1130       C  0.02117201  0.60320337  0.15602003    -0.07700
C1131       C  0.01018475  0.60589464  0.20975130     0.05800
C1132       C  0.50152391  0.64847591  0.21452946    -0.02800
Br1133     Br  0.52999531  0.70579327  0.26322178    -0.02500
H1134       H  0.47606206  0.69440615  0.17544275     0.09700
H1135       H  0.02322093  0.57291272  0.14429216     0.07700
Br1136     Br  0.03032942  0.61921268  0.04408917    -0.02900
C1137       C  0.88084539  0.90722872  0.09814463    -0.09500
C1138       C  0.83307294  0.86599539  0.10363730     0.06700
C1139       C  0.81595928  0.85603772  0.15532622    -0.03300
C1140       C  0.84808826  0.87899248  0.20004229    -0.07700
C1141       C  0.89981946  0.91730048  0.19831290     0.05800
C1142       C  0.91196928  0.93291004  0.14402752    -0.02800
Br1143     Br  0.97436621  0.98262514  0.13027925    -0.02500
H1144       H  0.89509980  0.91821263  0.05826621     0.09700
H1145       H  0.82860622  0.86625941  0.23610302     0.07700
Br1146     Br  0.74692591  0.81404624  0.16668115    -0.02900
C1147       C  0.83568989  0.88085960  0.36399955    -0.09500
C1148       C  0.81742622  0.82958451  0.36303888     0.06700
C1149       C  0.84040274  0.81410452  0.32704464    -0.03300
C1150       C  0.87809978  0.84986457  0.29377465    -0.07700
C1151       C  0.90198595  0.90295229  0.30037597     0.05800
C1152       C  0.88509908  0.91207522  0.34910693    -0.02800
Br1153     Br  0.90870823  0.90060602  0.41924151    -0.02500
H1154       H  0.82090879  0.89491940  0.39294590     0.09700
H1155       H  0.88361657  0.83618516  0.25768759     0.07700
Br1156     Br  0.82013177  0.74548207  0.32006652    -0.02900
C1157       C  0.58964955  0.58023761  0.34829067    -0.09500
C1158       C  0.60675405  0.58328114  0.29720902     0.06700
C1159       C  0.66213859  0.61127857  0.29941077    -0.03300
C1160       C  0.69043434  0.63631217  0.34686221    -0.07700
C1161       C  0.66861786  0.63788464  0.39301441     0.05800
C1162       C  0.61803828  0.60664037  0.39406758    -0.02800
Br1163     Br  0.58624989  0.60279767  0.45648077    -0.02500
H1164       H  0.55159572  0.55855020  0.35022184     0.09700
H1165       H  0.73042266  0.65850698  0.34728390     0.07700
Br1166     Br  0.71284915  0.63042694  0.24781428    -0.02900
C1167       C  0.60302867  0.58593024  0.14620788    -0.09500
C1168       C  0.59910203  0.59830978  0.19992465     0.06700
C1169       C  0.63154714  0.65228523  0.20724141    -0.03300
C1170       C  0.67347479  0.68123889  0.17552398    -0.07700
C1171       C  0.67604480  0.66543193  0.12468643     0.05800
C1172       C  0.64146169  0.61669676  0.11159233    -0.02800
Br1173     Br  0.65358050  0.59004394  0.05059359    -0.02500
H1174       H  0.57542237  0.55163803  0.12994013     0.09700
H1175       H  0.70270226  0.71745298  0.18923513     0.07700
Br1176     Br  0.61390848  0.70222755  0.19008642    -0.02900
O1177       O  0.76463829  0.82180105  0.53756093    -0.72100
O1178       O  0.68250131  0.70648894  0.94877083    -0.72400
O1179       O  0.69164440  0.72685515  0.55632293    -0.72200
O1180       O  0.75450698  0.80032899  0.92945223    -0.72200
O1181       O  0.80975120  0.77867092  0.94030623    -0.72200
O1182       O  0.74387113  0.70102592  0.56374860    -0.72200
O1183       O  0.73824137  0.68516904  0.95517028    -0.72200
O1184       O  0.81636144  0.79603023  0.54915311    -0.72300
V1185       V  0.72434036  0.76343023  0.49327011     1.35200
V1186       V  0.77617733  0.74097609  0.00216873     1.35200
C1187       C  0.80440864  0.82781301  0.55995351     0.77100
C1188       C  0.69736778  0.67756951  0.93477593     0.77200
C1189       C  0.70641096  0.70066922  0.58123216     0.77000
C1190       C  0.79185860  0.80043665  0.91204104     0.77000
O1191       O  0.95935025  0.77325779  0.55251871    -0.72100
O1192       O  0.95970325  0.68254856  0.95320700    -0.72400
O1193       O  0.96109935  0.68979750  0.56018241    -0.72200
O1194       O  0.95453692  0.76557547  0.94440727    -0.72200
O1195       O  0.53450030  0.81444981  0.94942701    -0.72200
O1196       O  0.54142689  0.72878609  0.55636898    -0.72200
O1197       O  0.53929537  0.73060056  0.94902053    -0.72200
O1198       O  0.53970625  0.81325465  0.55804516    -0.72300
V1199       V  0.96017761  0.72874444  0.50243207     1.35200
V1200       V  0.53729412  0.77101152  0.00302918     1.35200
C1201       C  0.49965042  0.80762397  0.57377288     0.77100
C1202       C  0.00007260  0.69168944  0.93368310     0.77200
C1203       C  0.00187352  0.69560966  0.57720685     0.77000
C1204       C  0.49275926  0.80350065  0.92796750     0.77000
O1205       O  0.80181166  0.53532484  0.56270623    -0.72100
O1206       O  0.72303561  0.52976173  0.93969543    -0.72400
O1207       O  0.71497881  0.52909022  0.54710423    -0.72200
O1208       O  0.81238293  0.53782927  0.95570581    -0.72200
O1209       O  0.78042332  0.95860225  0.95494827    -0.72200
O1210       O  0.68099763  0.95016682  0.54702487    -0.72200
O1211       O  0.69100319  0.95072370  0.93845454    -0.72200
O1212       O  0.76887845  0.95639201  0.56221338    -0.72300
V1213       V  0.76228379  0.53128913  0.50113545     1.35200
V1214       V  0.73090111  0.95542660  0.00046639     1.35200
C1215       C  0.80175057  0.99776435  0.58163049     0.77100
C1216       C  0.69408983  0.98982208  0.91894643     0.77200
C1217       C  0.68540582  0.98973814  0.56599487     0.77000
C1218       C  0.81383800  0.00060679  0.93783978     0.77000
C1219       C  0.49295103  0.93531742  0.74792596    -0.02900
C1220       C  0.00784563  0.56439365  0.75613786    -0.02900
C1221       C  0.56362348  0.55669957  0.74764466    -0.02900
C1222       C  0.55560451  0.99161421  0.74111977    -0.02900
C1223       C  0.94354868  0.50530675  0.76013804    -0.02900
C1224       C  0.93827851  0.94307063  0.75226613    -0.02900
C1225       C  0.91210270  0.52974224  0.66658529    -0.09500
C1226       C  0.90009601  0.50221012  0.71443836     0.06700
C1227       C  0.84770637  0.96989761  0.71359785    -0.03300
C1228       C  0.81623093  0.96976064  0.67118027    -0.07700
C1229       C  0.82992884  0.49887883  0.62929418     0.05800
C1230       C  0.88018814  0.52940380  0.62573913    -0.02800
Br1231     Br  0.90668608  0.56121477  0.55836465    -0.02500
H1232       H  0.94484290  0.54151035  0.65188938     0.09700
H1233       H  0.77637734  0.94575776  0.67281734     0.07700
Br1234     Br  0.80387503  0.92639466  0.76881612    -0.02900
C1235       C  0.89078013  0.50303134  0.91224223    -0.09500
C1236       C  0.84819175  0.50498708  0.89919723     0.06700
C1237       C  0.84589469  0.02033453  0.84587292    -0.03300
C1238       C  0.87705083  0.52397424  0.80898116    -0.07700
C1239       C  0.91462837  0.50944255  0.81487981     0.05800
C1240       C  0.92522051  0.50925799  0.87259201    -0.02800
Br1241     Br  0.98205522  0.51542033  0.90724438    -0.02500
H1242       H  0.89804582  0.49793111  0.95413109     0.09700
H1243       H  0.87160593  0.54038361  0.77274821     0.07700
Br1244     Br  0.79652947  0.03692850  0.82425277    -0.02900
C1245       C  0.66479207  0.97437836  0.82308487    -0.09500
C1246       C  0.66035784  0.98704491  0.87401263     0.06700
C1247       C  0.61925781  0.49357131  0.88202770    -0.03300
C1248       C  0.58650250  0.49004834  0.83997878    -0.07700
C1249       C  0.59262500  0.98330241  0.78603286     0.05800
C1250       C  0.63322203  0.97210888  0.77954865    -0.02800
Br1251     Br  0.65394150  0.94583419  0.72186328    -0.02500
H1252       H  0.69329980  0.96524362  0.81805597     0.09700
H1253       H  0.55814007  0.49555835  0.85099129     0.07700
Br1254     Br  0.61153412  0.50971420  0.95189164    -0.02900
C1255       C  0.60279735  0.95195450  0.60977129    -0.09500
C1256       C  0.65246557  0.98950988  0.60787252     0.06700
C1257       C  0.66676539  0.52656401  0.64581425    -0.03300
C1258       C  0.63437390  0.52529003  0.68455132    -0.07700
C1259       C  0.58473341  0.99207281  0.68527373     0.05800
C1260       C  0.56916889  0.96081595  0.63703075    -0.02800
Br1261     Br  0.54938827  0.97629061  0.56849542    -0.02500
H1262       H  0.58931574  0.92140927  0.58120775     0.09700
H1263       H  0.64993357  0.54694018  0.71907009     0.07700
Br1264     Br  0.73702419  0.57033765  0.65744203    -0.02900
C1265       C  0.53069673  0.85128361  0.66199559    -0.09500
C1266       C  0.49968551  0.83991072  0.61638614     0.06700
C1267       C  0.96437499  0.85378119  0.61538290    -0.03300
C1268       C  0.95894066  0.87672849  0.65973214    -0.07700
C1269       C  0.49404704  0.89817397  0.70303873     0.05800
C1270       C  0.52794597  0.87785691  0.70565997    -0.02800
Br1271     Br  0.55797867  0.86245252  0.76831314    -0.02500
H1272       H  0.55534356  0.83655563  0.66489468     0.09700
H1273       H  0.92101312  0.86284341  0.66562033     0.07700
Br1274     Br  0.92049137  0.83904254  0.55450983    -0.02900
C1275       C  0.96342072  0.81123761  0.83731699    -0.09500
C1276       C  0.48779768  0.83384553  0.88469157     0.06700
C1277       C  0.49899829  0.88221069  0.89283308    -0.03300
C1278       C  0.49275724  0.90972610  0.85067503    -0.07700
C1279       C  0.48467293  0.89483829  0.79680519     0.05800
C1280       C  0.96066209  0.83902573  0.79368799    -0.02800
Br1281     Br  0.92692077  0.78982023  0.73560432    -0.02500
H1282       H  0.94887124  0.77154887  0.83350750     0.09700
H1283       H  0.49095869  0.94171439  0.86026869     0.07700
Br1284     Br  0.51185960  0.90518453  0.96432661    -0.02900
C1285       C  0.54702179  0.66216889  0.88391461    -0.09500
C1286       C  0.00211635  0.65881203  0.89303493     0.06700
C1287       C  0.96428184  0.63366936  0.85468602    -0.03300
C1288       C  0.97064317  0.60738018  0.81382541    -0.07700
C1289       C  0.01195033  0.60079036  0.80734455     0.06100
C1290       C  0.55370547  0.64112386  0.83772106    -0.02800
Br1291     Br  0.61976572  0.68768847  0.81591788    -0.02500
H1292       H  0.57918750  0.68806820  0.90830691     0.09700
H1293       H  0.94514385  0.59805170  0.78040878     0.07700
Br1294     Br  0.91184230  0.64819754  0.84479395    -0.02900
C1295       C  0.48814544  0.66782598  0.67035167    -0.09500
C1296       C  0.00276948  0.66422708  0.62059568     0.06700
C1297       C  0.01948703  0.63195169  0.61350791    -0.03300
C1298       C  0.02113254  0.60317657  0.65601070    -0.07700
C1299       C  0.01014644  0.60587302  0.70974087     0.05800
C1300       C  0.50158092  0.64850891  0.71454542    -0.02800
Br1301     Br  0.53005906  0.70581638  0.76324959    -0.02500
H1302       H  0.47613727  0.69445888  0.67546920     0.09700
H1303       H  0.02319818  0.57289179  0.64429134     0.07700
Br1304     Br  0.03027993  0.61917053  0.54407503    -0.02900
C1305       C  0.88084797  0.90722539  0.59814858    -0.09500
C1306       C  0.83307843  0.86598533  0.60364036     0.06700
C1307       C  0.81596550  0.85602083  0.65532937    -0.03300
C1308       C  0.84809320  0.87897612  0.70004553    -0.07700
C1309       C  0.89982177  0.91729165  0.69831638     0.05800
C1310       C  0.91197101  0.93290529  0.64403279    -0.02800
Br1311     Br  0.97436951  0.98262399  0.63029513    -0.02500
H1312       H  0.89510186  0.91821460  0.55827063     0.09700
H1313       H  0.82861043  0.86623735  0.73610535     0.07700
Br1314     Br  0.74693337  0.81401821  0.66668544    -0.02900
C1315       C  0.83568279  0.88085250  0.86398933    -0.09500
C1316       C  0.81742481  0.82957829  0.86303649     0.06700
C1317       C  0.84041088  0.81409893  0.82705429    -0.03300
C1318       C  0.87810949  0.84985819  0.79378445    -0.07700
C1319       C  0.90198820  0.90294665  0.80037739     0.05800
C1320       C  0.88509249  0.91207161  0.84910024    -0.02800
Br1321     Br  0.90869438  0.90060814  0.91924078    -0.02500
H1322       H  0.82089556  0.89491266  0.89292741     0.09700
H1323       H  0.88363088  0.83617699  0.75770190     0.07700
Br1324     Br  0.82015535  0.74547806  0.82010054    -0.02900
C1325       C  0.58965471  0.58022305  0.84830565    -0.09500
C1326       C  0.60676126  0.58326681  0.79722489     0.06700
C1327       C  0.66214619  0.61126104  0.79943051    -0.03300
C1328       C  0.69043993  0.63630168  0.84688012    -0.07700
C1329       C  0.66862129  0.63787430  0.89303077     0.05800
C1330       C  0.61804200  0.60662495  0.89408494    -0.02800
Br1331     Br  0.58625295  0.60278730  0.95649764    -0.02500
H1332       H  0.55160056  0.55853733  0.85023135     0.09700
H1333       H  0.73042794  0.65850010  0.84730156     0.07700
Br1334     Br  0.71286042  0.63039041  0.74784169    -0.02900
C1335       C  0.60303647  0.58592134  0.64622031    -0.09500
C1336       C  0.59911931  0.59830115  0.69994044     0.06700
C1337       C  0.63158299  0.65227406  0.70726493    -0.03300
C1338       C  0.67350713  0.68122065  0.67553860    -0.07700
C1339       C  0.67605492  0.66541870  0.62468930     0.05800
C1340       C  0.64146158  0.61668645  0.61159691    -0.02800
Br1341     Br  0.65355887  0.59002865  0.55059109    -0.02500
H1342       H  0.57542471  0.55163131  0.62995241     0.09700
H1343       H  0.70275006  0.71742648  0.68925337     0.07700
Br1344     Br  0.61396935  0.70223621  0.69013102    -0.02900
loop_ 
_geom_bond_atom_site_label_1 
_geom_bond_atom_site_label_2 
_geom_bond_distance 
_geom_bond_site_symmetry_2 
_ccdc_geom_bond_type 
O1            V9   1.932   1_554  S
O1           C11   1.268       .  A
O2          V177   1.921       .  S
O2           C12   1.270       .  A
O3            V9   1.922   1_554  S
O3           C13   1.270       .  A
O4          V177   1.928       .  S
O4           C14   1.270       .  A
O5           V10   1.915       .  S
O5           C14   1.268       .  A
O6          V178   1.918       .  S
O6           C13   1.266       .  A
O7           V10   1.918       .  S
O7           C12   1.267       .  A
O8          V178   1.914       .  S
O8           C11   1.267       .  A
V9          O170   1.921       .  S
V9          O172   1.928       .  S
V9          V178   2.081   1_556  T
V10         O174   1.919       .  S
V10         O176   1.914       .  S
V10         V177   2.081       .  T
C11         C130   1.511       .  S
C12         C153   1.503       .  S
C13         C163   1.500       .  S
C14         C140   1.503       .  S
O15          V23   1.903       .  S
O15         C697   1.270       .  A
O16         V191   1.910       .  S
O16          C26   1.268       .  A
O17          V23   1.879       .  S
O17          C27   1.256       .  A
O18         V191   1.892       .  S
O18         C700   1.260       .  A
O19          V24   1.914       .  S
O19          C28   1.269   1_455  A
O20         V192   1.900       .  S
O20         C699   1.267       .  A
O21          V24   1.894       .  S
O21         C698   1.263       .  A
O22         V192   1.896       .  S
O22          C25   1.260   1_455  A
V23         O184   1.910   1_554  S
V23         O186   1.892   1_554  S
V23         V864   2.085       .  T
V24         O188   1.900       .  S
V24         O190   1.896       .  S
V24         V863   2.085   1_455  T
C25         O687   1.270       .  A
C25          C90   1.482       .  S
C26         O693   1.263       .  A
C26         C110   1.487       .  S
C27         O692   1.267       .  A
C27         C120   1.462       .  S
C28         O690   1.260       .  A
C28         C100   1.479       .  S
O29          V37   1.896       .  S
O29         C375   1.265   1_545  A
O30         V205   1.905       .  S
O30         C376   1.266   1_545  A
O31          V37   1.894       .  S
O31         C377   1.263   1_545  A
O32         V205   1.900       .  S
O32         C378   1.263       .  A
O33          V38   1.934       .  S
O33          C42   1.273       .  A
O34         V206   1.931       .  S
O34          C41   1.272       .  A
O35          V38   1.909       .  S
O35          C40   1.265       .  A
O36         V206   1.899       .  S
O36          C39   1.261       .  A
V37         O198   1.905   1_554  S
V37         O200   1.900   1_554  S
V37         V542   2.086   1_545  T
V38         O202   1.931       .  S
V38         O204   1.899       .  S
V38         V541   2.086       .  T
C39         O365   1.266       .  A
C39         C389   1.473       .  S
C40         O366   1.266       .  A
C40          C70   1.485       .  S
C41         O367   1.262       .  A
C41          C80   1.496       .  S
C42         O368   1.263       .  A
C42         C396   1.496       .  S
C43          C46   1.869   1_655  S
C43         C720   1.864       .  S
C43          C93   1.652       .  S
C43         C103   1.670       .  S
C44          C47   1.921       .  S
C44         C717   1.904       .  S
C44         C113   1.693       .  S
C44         C123   1.699       .  S
C45         C716   1.904       .  S
C45         C382   1.901   1_545  S
C45         C150   1.669       .  S
C45         C160   1.704       .  S
C46         C381   1.903       .  S
C46          C73   1.691       .  S
C46          C83   1.691       .  S
C47         C384   1.851   1_545  S
C47          C50   1.699       .  S
C47          C63   1.713       .  S
C48         C715   1.864       .  S
C48         C383   1.853       .  S
C48         C133   1.680       .  S
C48         C143   1.702       .  S
C49          C50   1.402       .  A
C49          C54   1.391       .  A
C49          H56   0.985       .  S
C50         C387   1.498   1_545  A
C51          C52   1.416       .  A
C51         C386   1.500       .  A
C51         Br58   1.950       .  S
C52         C389   1.381       .  A
C52          H57   1.085       .  S
C53         C375   1.469   1_545  S
C53          C54   1.375       .  A
C53         C388   1.383   1_545  A
C54         Br55   1.930       .  S
C59          C60   1.392       .  A
C59          C64   1.431       .  A
C59          H66   1.084   1_545  S
C60         C378   1.488       .  S
C60         C397   1.379       .  A
C61         C396   1.380       .  A
C61         C398   1.397       .  A
C61         Br68   1.924       .  S
C62          C63   1.468       .  A
C62         C397   1.395       .  A
C62          H67   1.079       .  S
C63          C64   1.460       .  A
C64         Br65   1.861       .  S
C69          C70   1.372       .  A
C69          C74   1.417       .  A
C69          H76   1.084       .  S
C70         C407   1.374       .  A
C71          C72   1.399       .  A
C71         C406   1.372       .  A
C71         Br78   1.885   1_565  S
C72         C409   1.405       .  A
C72          H77   1.038       .  S
C73          C74   1.503       .  A
C73         C408   1.404       .  A
C74         Br75   1.959       .  S
C79          C80   1.394       .  A
C79          C84   1.422       .  A
C79          H86   1.089       .  S
C80         C417   1.405       .  A
C81          C82   1.420       .  A
C81         C416   1.405   1_545  A
C81         Br88   1.925       .  S
C82         C419   1.423   1_545  A
C82          H87   1.038       .  S
C83          C84   1.466       .  A
C83         C418   1.423       .  A
C84         Br85   1.935       .  S
C89          C90   1.388   1_455  A
C89          C94   1.415       .  A
C89          H96   1.085       .  S
C90         C763   1.382       .  A
C91          C92   1.398       .  A
C91         C762   1.382       .  A
C91         Br98   1.901       .  S
C92         C765   1.419       .  A
C92          H97   1.057       .  S
C93          C94   1.493   1_655  A
C93         C764   1.419       .  A
C94         Br95   1.961       .  S
C99         C104   1.405       .  A
C99         C772   1.372       .  A
C99         H106   1.086       .  S
C100        C101   1.384       .  A
C100        C771   1.372       .  A
C101        C102   1.415       .  A
C101       Br108   1.885   1_655  S
C102        C103   1.402       .  A
C102        H107   1.065       .  S
C103        C776   1.509       .  A
C104        C775   1.509       .  A
C104       Br105   1.969       .  S
C109        C114   1.415       .  A
C109        C782   1.389       .  A
C109        H116   1.085       .  S
C110        C111   1.384       .  A
C110        C781   1.389       .  A
C111        C112   1.403       .  A
C111       Br118   1.922       .  S
C112        C113   1.428       .  A
C112        H117   1.060       .  S
C113        C786   1.470       .  A
C114        C785   1.470       .  A
C114       Br115   1.918       .  S
C119        C124   1.397       .  A
C119        C792   1.375   1_655  A
C119        H126   1.086       .  S
C120        C121   1.378       .  A
C120        C791   1.375       .  A
C121        C122   1.397       .  A
C121       Br128   1.878       .  S
C122        C123   1.424       .  A
C122        H127   1.037       .  S
C123        C796   1.487       .  A
C124        C795   1.487   1_655  A
C124       Br125   1.957   1_655  S
C129        C130   1.400       .  A
C129        C134   1.428       .  A
C129        H136   1.083       .  S
C130        C131   1.386       .  A
C131        C132   1.405       .  A
C131       Br138   1.910       .  S
C132        C133   1.448       .  A
C132        H137   1.061       .  S
C133        C134   1.425       .  A
C134       Br135   1.805       .  S
C139        C140   1.399       .  A
C139        C144   1.412       .  A
C139        H146   1.087       .  S
C140        C141   1.411       .  A
C141        C142   1.425       .  A
C141       Br148   1.910       .  S
C142        C143   1.437       .  A
C142        H147   1.062       .  S
C143        C144   1.438       .  A
C144       Br145   1.960       .  S
C149        C150   1.388       .  A
C149        C154   1.408       .  A
C149        H156   1.033       .  S
C150        C151   1.491       .  A
C151        C152   1.424       .  A
C151       Br158   1.927       .  S
C152        C153   1.380       .  A
C152        H157   1.083       .  S
C153        C154   1.384       .  A
C154       Br155   1.871       .  S
C159        C160   1.429       .  A
C159        C164   1.411       .  A
C159        H166   1.054       .  S
C160        C161   1.471       .  A
C161        C162   1.422       .  A
C161       Br168   1.940       .  S
C162        C163   1.388       .  A
C162        H167   1.082       .  S
C163        C164   1.380       .  A
C164       Br165   1.893       .  S
O169        V177   1.932       .  S
O169        C179   1.268       .  A
O170        C180   1.270       .  A
O171        V177   1.922       .  S
O171        C181   1.270       .  A
O172        C182   1.270       .  A
O173        V178   1.915   1_556  S
O173        C182   1.268       .  A
O174        C181   1.266       .  A
O175        V178   1.917   1_556  S
O175        C180   1.267       .  A
O176        C179   1.267       .  A
C179        C298   1.511       .  S
C180        C321   1.503       .  S
C181        C331   1.500       .  S
C182        C308   1.503       .  S
O183        V191   1.903       .  S
O183        C865   1.270       .  A
O184        C194   1.268       .  A
O185        V191   1.880       .  S
O185        C195   1.256       .  A
O186        C868   1.260       .  A
O187        V192   1.914   1_556  S
O187        C196   1.269   1_455  A
O188        C867   1.267       .  A
O189        V192   1.894   1_556  S
O189        C866   1.263       .  A
O190        C193   1.260   1_455  A
V191        V696   2.085       .  T
V192        V695   2.085   1_455  T
C193        O855   1.270       .  A
C193        C258   1.482       .  S
C194        O861   1.263       .  A
C194        C278   1.487       .  S
C195        O860   1.267       .  A
C195        C288   1.462       .  S
C196        O858   1.260       .  A
C196        C268   1.479       .  S
O197        V205   1.896       .  S
O197        C543   1.265   1_545  A
O198        C544   1.266   1_545  A
O199        V205   1.894       .  S
O199        C545   1.263   1_545  A
O200        C546   1.263       .  A
O201        V206   1.934   1_556  S
O201        C210   1.273       .  A
O202        C209   1.272       .  A
O203        V206   1.909   1_556  S
O203        C208   1.265       .  A
O204        C207   1.261       .  A
V205        V374   2.086   1_545  T
V206        V373   2.086       .  T
C207        O533   1.266       .  A
C207        C557   1.473       .  S
C208        O534   1.266       .  A
C208        C238   1.485       .  S
C209        O535   1.262       .  A
C209        C248   1.496       .  S
C210        O536   1.263       .  A
C210        C564   1.496       .  S
C211        C214   1.869   1_655  S
C211        C888   1.864       .  S
C211        C261   1.652       .  S
C211        C271   1.670       .  S
C212        C885   1.904       .  S
C212        C215   1.921       .  S
C212        C281   1.693       .  S
C212        C291   1.699       .  S
C213        C884   1.904       .  S
C213        C550   1.901   1_545  S
C213        C318   1.669       .  S
C213        C328   1.704       .  S
C214        C549   1.903       .  S
C214        C241   1.691       .  S
C214        C251   1.691       .  S
C215        C552   1.851   1_545  S
C215        C218   1.699       .  S
C215        C231   1.713       .  S
C216        C883   1.864       .  S
C216        C551   1.853       .  S
C216        C301   1.680       .  S
C216        C311   1.702       .  S
C217        C218   1.402       .  A
C217        C222   1.391       .  A
C217        H224   0.985       .  S
C218        C555   1.498   1_545  A
C219        C554   1.500       .  A
C219        C220   1.416       .  A
C219       Br226   1.950       .  S
C220        C557   1.381       .  A
C220        H225   1.085       .  S
C221        C543   1.469   1_545  S
C221        C556   1.383   1_545  A
C221        C222   1.375       .  A
C222       Br223   1.930       .  S
C227        C228   1.392       .  A
C227        C232   1.431       .  A
C227        H234   1.084   1_545  S
C228        C546   1.488       .  S
C228        C565   1.379       .  A
C229        C564   1.380       .  A
C229        C566   1.397       .  A
C229       Br236   1.924       .  S
C230        C565   1.395       .  A
C230        C231   1.468       .  A
C230        H235   1.079       .  S
C231        C232   1.460       .  A
C232       Br233   1.861       .  S
C237        C238   1.372       .  A
C237        C242   1.417       .  A
C237        H244   1.084       .  S
C238        C575   1.374       .  A
C239        C574   1.372       .  A
C239        C240   1.399       .  A
C239       Br246   1.885   1_565  S
C240        C577   1.405       .  A
C240        H245   1.038       .  S
C241        C576   1.404       .  A
C241        C242   1.503       .  A
C242       Br243   1.959       .  S
C247        C248   1.394       .  A
C247        C252   1.422       .  A
C247        H254   1.089       .  S
C248        C585   1.405       .  A
C249        C584   1.405   1_545  A
C249        C250   1.420       .  A
C249       Br256   1.925       .  S
C250        C587   1.423   1_545  A
C250        H255   1.038       .  S
C251        C586   1.423       .  A
C251        C252   1.466       .  A
C252       Br253   1.935       .  S
C257        C258   1.388   1_455  A
C257        C262   1.415       .  A
C257        H264   1.085       .  S
C258        C931   1.382       .  A
C259        C930   1.382       .  A
C259        C260   1.398       .  A
C259       Br266   1.901       .  S
C260        C933   1.419       .  A
C260        H265   1.057       .  S
C261        C932   1.419       .  A
C261        C262   1.493   1_655  A
C262       Br263   1.961       .  S
C267        C940   1.372       .  A
C267        C272   1.405       .  A
C267        H274   1.086       .  S
C268        C939   1.372       .  A
C268        C269   1.384       .  A
C269        C270   1.415       .  A
C269       Br276   1.885   1_655  S
C270        C271   1.402       .  A
C270        H275   1.065       .  S
C271        C944   1.509       .  A
C272        C943   1.509       .  A
C272       Br273   1.969       .  S
C277        C950   1.389       .  A
C277        C282   1.415       .  A
C277        H284   1.085       .  S
C278        C949   1.389       .  A
C278        C279   1.384       .  A
C279        C280   1.403       .  A
C279       Br286   1.922       .  S
C280        C281   1.428       .  A
C280        H285   1.059       .  S
C281        C954   1.470       .  A
C282        C953   1.470       .  A
C282       Br283   1.918       .  S
C287        C960   1.375   1_655  A
C287        C292   1.397       .  A
C287        H294   1.086       .  S
C288        C959   1.375       .  A
C288        C289   1.378       .  A
C289        C290   1.397       .  A
C289       Br296   1.878       .  S
C290        C291   1.424       .  A
C290        H295   1.037       .  S
C291        C964   1.487       .  A
C292        C963   1.487   1_655  A
C292       Br293   1.957   1_655  S
C297        C298   1.400       .  A
C297        C302   1.428       .  A
C297        H304   1.083       .  S
C298        C299   1.386       .  A
C299        C300   1.405       .  A
C299       Br306   1.910       .  S
C300        C301   1.448       .  A
C300        H305   1.061       .  S
C301        C302   1.425       .  A
C302       Br303   1.805       .  S
C307        C308   1.399       .  A
C307        C312   1.412       .  A
C307        H314   1.087       .  S
C308        C309   1.411       .  A
C309        C310   1.425       .  A
C309       Br316   1.910       .  S
C310        C311   1.437       .  A
C310        H315   1.062       .  S
C311        C312   1.438       .  A
C312       Br313   1.960       .  S
C317        C318   1.388       .  A
C317        C322   1.408       .  A
C317        H324   1.033       .  S
C318        C319   1.492       .  A
C319        C320   1.424       .  A
C319       Br326   1.927       .  S
C320        C321   1.380       .  A
C320        H325   1.083       .  S
C321        C322   1.384       .  A
C322       Br323   1.871       .  S
C327        C328   1.429       .  A
C327        C332   1.411       .  A
C327        H334   1.054       .  S
C328        C329   1.471       .  A
C329        C330   1.422       .  A
C329       Br336   1.940       .  S
C330        C331   1.388       .  A
C330        H335   1.082       .  S
C331        C332   1.380       .  A
C332       Br333   1.893       .  S
O337        V345   1.937   1_554  S
O337        C347   1.270       .  A
O338        V513   1.921       .  S
O338        C348   1.272       .  A
O339        V345   1.923   1_554  S
O339        C349   1.270       .  A
O340        V513   1.922       .  S
O340        C350   1.269       .  A
O341        V346   1.917       .  S
O341        C350   1.269       .  A
O342        V514   1.925       .  S
O342        C349   1.269       .  A
O343        V346   1.916       .  S
O343        C348   1.265       .  A
O344        V514   1.913       .  S
O344        C347   1.266       .  A
V345        O506   1.921       .  S
V345        O508   1.922       .  S
V345        V514   2.081   1_556  T
V346        O510   1.925       .  S
V346        O512   1.913       .  S
V346        V513   2.081       .  T
C347        C466   1.513       .  S
C348        C489   1.504       .  S
C349        C499   1.504       .  S
C350        C476   1.503       .  S
O351        V359   1.900       .  S
O351       C1033   1.269       .  A
O352        V527   1.909       .  S
O352        C362   1.268       .  A
O353        V359   1.873       .  S
O353        C363   1.254       .  A
O354        V527   1.887       .  S
O354       C1036   1.259       .  A
O355        V360   1.915       .  S
O355        C364   1.269   1_455  A
O356        V528   1.900       .  S
O356       C1035   1.267       .  A
O357        V360   1.890       .  S
O357       C1034   1.262       .  A
O358        V528   1.895       .  S
O358        C361   1.259   1_455  A
V359        O520   1.909   1_554  S
V359        O522   1.887   1_554  S
V359       V1200   2.085       .  T
V360        O524   1.900       .  S
V360        O526   1.895       .  S
V360       V1199   2.085   1_455  T
C361       O1023   1.269       .  A
C361        C426   1.480       .  S
C362       O1029   1.262       .  A
C362        C446   1.485       .  S
C363       O1028   1.267       .  A
C363        C456   1.453       .  S
C364       O1026   1.259       .  A
C364        C436   1.476       .  S
O365        V373   1.895       .  S
O366        V541   1.908       .  S
O367        V373   1.890       .  S
O368        V541   1.904       .  S
O369        V374   1.928       .  S
O369        C378   1.271   1_565  A
O370        V542   1.930       .  S
O370        C377   1.272       .  A
O371        V374   1.905       .  S
O371        C376   1.264       .  A
O372        V542   1.896       .  S
O372        C375   1.261       .  A
V373        O534   1.908   1_554  S
V373        O536   1.904   1_554  S
V374        O538   1.930       .  S
V374        O540   1.896       .  S
C376        C406   1.480       .  S
C377        C416   1.500       .  S
C379        C382   1.865   1_655  S
C379       C1056   1.863       .  S
C379        C429   1.643       .  S
C379        C439   1.666       .  S
C380       C1053   1.909       .  S
C380        C383   1.924       .  S
C380        C449   1.684       .  S
C380        C459   1.694       .  S
C381       C1052   1.909       .  S
C381        C486   1.673       .  S
C381        C496   1.708       .  S
C382        C409   1.690       .  S
C382        C419   1.695       .  S
C383        C386   1.704       .  S
C383        C399   1.715       .  S
C384       C1051   1.863       .  S
C384        C469   1.680       .  S
C384        C479   1.705       .  S
C385        C386   1.403       .  A
C385        C390   1.393       .  A
C385        H392   0.985       .  S
C387        C388   1.414       .  A
C387       Br394   1.953       .  S
C388        H393   1.085       .  S
C389        C390   1.372       .  A
C390       Br391   1.925       .  S
C395        C396   1.395       .  A
C395        C400   1.435       .  A
C395        H402   1.084       .  S
C397       Br404   1.925       .  S
C398        C399   1.468       .  A
C398        H403   1.079       .  S
C399        C400   1.462       .  A
C400       Br401   1.869       .  S
C405        C406   1.371       .  A
C405        C410   1.415       .  A
C405        H412   1.084       .  S
C407        C408   1.401       .  A
C407       Br414   1.882       .  S
C408        H413   1.040       .  S
C409        C410   1.502       .  A
C410       Br411   1.961       .  S
C415        C416   1.396       .  A
C415        C420   1.424       .  A
C415        H422   1.089       .  S
C417        C418   1.420       .  A
C417       Br424   1.925       .  S
C418        H423   1.042       .  S
C419        C420   1.465       .  A
C420       Br421   1.927       .  S
C425        C426   1.390   1_455  A
C425        C430   1.415       .  A
C425        H432   1.085       .  S
C426       C1099   1.382       .  A
C427       C1098   1.382       .  A
C427        C428   1.393       .  A
C427       Br434   1.900       .  S
C428       C1101   1.414       .  A
C428        H433   1.056       .  S
C429       C1100   1.414       .  A
C429        C430   1.493   1_655  A
C430       Br431   1.965       .  S
C435       C1108   1.372       .  A
C435        C440   1.404       .  A
C435        H442   1.086       .  S
C436       C1107   1.372       .  A
C436        C437   1.383       .  A
C437        C438   1.413       .  A
C437       Br444   1.883   1_655  S
C438        C439   1.399       .  A
C438        H443   1.063       .  S
C439       C1112   1.508       .  A
C440       C1111   1.508       .  A
C440       Br441   1.969       .  S
C445       C1118   1.391       .  A
C445        C450   1.413       .  A
C445        H452   1.085       .  S
C446       C1117   1.391       .  A
C446        C447   1.386       .  A
C447        C448   1.405       .  A
C447       Br454   1.926       .  S
C448        C449   1.432       .  A
C448        H453   1.064       .  S
C449       C1122   1.465       .  A
C450       C1121   1.465       .  A
C450       Br451   1.925       .  S
C455       C1128   1.368   1_655  A
C455        C460   1.395   1_655  A
C455        H462   1.087       .  S
C456       C1127   1.368       .  A
C456        C457   1.373       .  A
C457        C458   1.391       .  A
C457       Br464   1.867       .  S
C458        C459   1.412       .  A
C458        H463   1.031       .  S
C459       C1132   1.497       .  A
C460       C1131   1.497       .  A
C460       Br461   1.960       .  S
C465        C466   1.403       .  A
C465        C470   1.430       .  A
C465        H472   1.083       .  S
C466        C467   1.385       .  A
C467        C468   1.403       .  A
C467       Br474   1.908       .  S
C468        C469   1.447       .  A
C468        H473   1.061       .  S
C469        C470   1.428       .  A
C470       Br471   1.817       .  S
C475        C476   1.400       .  A
C475        C480   1.411       .  A
C475        H482   1.087       .  S
C476        C477   1.412       .  A
C477        C478   1.427       .  A
C477       Br484   1.910       .  S
C478        C479   1.439       .  A
C478        H483   1.062       .  S
C479        C480   1.437       .  A
C480       Br481   1.965       .  S
C485        C486   1.386       .  A
C485        C490   1.405       .  A
C485        H492   1.034       .  S
C486        C487   1.496       .  A
C487        C488   1.427       .  A
C487       Br494   1.931       .  S
C488        C489   1.379       .  A
C488        H493   1.082       .  S
C489        C490   1.378       .  A
C490       Br491   1.855       .  S
C495        C496   1.429       .  A
C495        C500   1.414       .  A
C495        H502   1.050       .  S
C496        C497   1.469       .  A
C497        C498   1.423       .  A
C497       Br504   1.940       .  S
C498        C499   1.390       .  A
C498        H503   1.081       .  S
C499        C500   1.381       .  A
C500       Br501   1.892       .  S
O505        V513   1.937       .  S
O505        C515   1.270       .  A
O506        C516   1.272       .  A
O507        V513   1.923       .  S
O507        C517   1.270       .  A
O508        C518   1.269       .  A
O509        V514   1.917   1_556  S
O509        C518   1.269       .  A
O510        C517   1.269       .  A
O511        V514   1.916   1_556  S
O511        C516   1.265       .  A
O512        C515   1.266       .  A
C515        C634   1.513       .  S
C516        C657   1.504       .  S
C517        C667   1.504       .  S
C518        C644   1.503       .  S
O519        V527   1.900       .  S
O519       C1201   1.269       .  A
O520        C530   1.268       .  A
O521        V527   1.874       .  S
O521        C531   1.254       .  A
O522       C1204   1.259       .  A
O523        V528   1.915   1_556  S
O523        C532   1.269   1_455  A
O524       C1203   1.267       .  A
O525        V528   1.890   1_556  S
O525       C1202   1.262       .  A
O526        C529   1.259   1_455  A
V527       V1032   2.085       .  T
V528       V1031   2.085   1_455  T
C529       O1191   1.269       .  A
C529        C594   1.480       .  S
C530       O1197   1.262       .  A
C530        C614   1.485       .  S
C531       O1196   1.267       .  A
C531        C624   1.453       .  S
C532       O1194   1.259       .  A
C532        C604   1.476       .  S
O533        V541   1.895       .  S
O535        V541   1.890       .  S
O537        V542   1.928   1_556  S
O537        C546   1.271   1_565  A
O538        C545   1.272       .  A
O539        V542   1.905   1_556  S
O539        C544   1.264       .  A
O540        C543   1.261       .  A
C544        C574   1.480       .  S
C545        C584   1.500       .  S
C547        C550   1.865   1_655  S
C547       C1224   1.863       .  S
C547        C597   1.643       .  S
C547        C607   1.666       .  S
C548       C1221   1.909       .  S
C548        C551   1.924       .  S
C548        C617   1.684       .  S
C548        C627   1.694       .  S
C549       C1220   1.909       .  S
C549        C654   1.673       .  S
C549        C664   1.708       .  S
C550        C577   1.690       .  S
C550        C587   1.695       .  S
C551        C554   1.704       .  S
C551        C567   1.715       .  S
C552       C1219   1.863       .  S
C552        C637   1.680       .  S
C552        C647   1.705       .  S
C553        C554   1.403       .  A
C553        C558   1.393       .  A
C553        H560   0.985       .  S
C555        C556   1.414       .  A
C555       Br562   1.953       .  S
C556        H561   1.085       .  S
C557        C558   1.372       .  A
C558       Br559   1.925       .  S
C563        C564   1.395       .  A
C563        C568   1.435       .  A
C563        H570   1.084       .  S
C565       Br572   1.925       .  S
C566        C567   1.468       .  A
C566        H571   1.079       .  S
C567        C568   1.462       .  A
C568       Br569   1.869       .  S
C573        C574   1.371       .  A
C573        C578   1.415       .  A
C573        H580   1.084       .  S
C575        C576   1.401       .  A
C575       Br582   1.882       .  S
C576        H581   1.040       .  S
C577        C578   1.502       .  A
C578       Br579   1.961       .  S
C583        C584   1.396       .  A
C583        C588   1.424       .  A
C583        H590   1.089       .  S
C585        C586   1.420       .  A
C585       Br592   1.925       .  S
C586        H591   1.042       .  S
C587        C588   1.465       .  A
C588       Br589   1.927       .  S
C593        C594   1.390   1_455  A
C593        C598   1.415       .  A
C593        H600   1.085       .  S
C594       C1267   1.382       .  A
C595       C1266   1.382       .  A
C595        C596   1.393       .  A
C595       Br602   1.900       .  S
C596       C1269   1.414       .  A
C596        H601   1.056       .  S
C597       C1268   1.414       .  A
C597        C598   1.493   1_655  A
C598       Br599   1.965       .  S
C603       C1276   1.372       .  A
C603        C608   1.404       .  A
C603        H610   1.086       .  S
C604       C1275   1.372       .  A
C604        C605   1.383       .  A
C605        C606   1.413       .  A
C605       Br612   1.883   1_655  S
C606        C607   1.399       .  A
C606        H611   1.063       .  S
C607       C1280   1.508       .  A
C608       C1279   1.508       .  A
C608       Br609   1.969       .  S
C613       C1286   1.391       .  A
C613        C618   1.413       .  A
C613        H620   1.085       .  S
C614       C1285   1.391       .  A
C614        C615   1.386       .  A
C615        C616   1.405       .  A
C615       Br622   1.926       .  S
C616        C617   1.432       .  A
C616        H621   1.064       .  S
C617       C1290   1.465       .  A
C618       C1289   1.465       .  A
C618       Br619   1.925       .  S
C623       C1296   1.368   1_655  A
C623        C628   1.395   1_655  A
C623        H630   1.087       .  S
C624       C1295   1.368       .  A
C624        C625   1.373       .  A
C625        C626   1.391       .  A
C625       Br632   1.867       .  S
C626        C627   1.412       .  A
C626        H631   1.031       .  S
C627       C1300   1.497       .  A
C628       C1299   1.497       .  A
C628       Br629   1.960       .  S
C633        C634   1.403       .  A
C633        C638   1.430       .  A
C633        H640   1.083       .  S
C634        C635   1.385       .  A
C635        C636   1.403       .  A
C635       Br642   1.908       .  S
C636        C637   1.447       .  A
C636        H641   1.061       .  S
C637        C638   1.428       .  A
C638       Br639   1.817       .  S
C643        C644   1.400       .  A
C643        C648   1.411       .  A
C643        H650   1.087       .  S
C644        C645   1.412       .  A
C645        C646   1.427       .  A
C645       Br652   1.910       .  S
C646        C647   1.439       .  A
C646        H651   1.062       .  S
C647        C648   1.437       .  A
C648       Br649   1.965       .  S
C653        C654   1.386       .  A
C653        C658   1.405       .  A
C653        H660   1.034       .  S
C654        C655   1.496       .  A
C655        C656   1.427       .  A
C655       Br662   1.931       .  S
C656        C657   1.379       .  A
C656        H661   1.082       .  S
C657        C658   1.378       .  A
C658       Br659   1.855       .  S
C663        C664   1.429       .  A
C663        C668   1.414       .  A
C663        H670   1.050       .  S
C664        C665   1.469       .  A
C665        C666   1.423       .  A
C665       Br672   1.940       .  S
C666        C667   1.390       .  A
C666        H671   1.081       .  S
C667        C668   1.381       .  A
C668       Br669   1.892       .  S
O673        V681   1.932   1_554  S
O673        C683   1.268       .  A
O674        V849   1.921       .  S
O674        C684   1.270       .  A
O675        V681   1.922   1_554  S
O675        C685   1.270       .  A
O676        V849   1.928       .  S
O676        C686   1.270       .  A
O677        V682   1.915       .  S
O677        C686   1.268       .  A
O678        V850   1.919       .  S
O678        C685   1.266       .  A
O679        V682   1.917       .  S
O679        C684   1.267       .  A
O680        V850   1.914       .  S
O680        C683   1.267       .  A
V681        O842   1.921       .  S
V681        O844   1.928       .  S
V681        V850   2.081   1_556  T
V682        O846   1.918       .  S
V682        O848   1.914       .  S
V682        V849   2.081       .  T
C683        C802   1.511       .  S
C684        C825   1.503       .  S
C685        C835   1.500       .  S
C686        C812   1.503       .  S
O687        V695   1.903       .  S
O688        V863   1.910       .  S
O688        C698   1.268   1_655  A
O689        V695   1.880       .  S
O689        C699   1.256   1_655  A
O690        V863   1.892       .  S
O691        V696   1.914       .  S
O691        C700   1.269       .  A
O692        V864   1.900       .  S
O693        V696   1.894       .  S
O694        V864   1.896       .  S
O694        C697   1.260       .  A
V695        O856   1.910   1_554  S
V695        O858   1.892   1_554  S
V696        O860   1.900       .  S
V696        O862   1.896       .  S
C697        C762   1.482       .  S
C698        C782   1.487       .  S
C699        C792   1.462       .  S
C700        C772   1.479       .  S
O701        V709   1.896       .  S
O701       C1047   1.265   1_545  A
O702        V877   1.905       .  S
O702       C1048   1.266   1_545  A
O703        V709   1.894       .  S
O703       C1049   1.263   1_545  A
O704        V877   1.900       .  S
O704       C1050   1.263       .  A
O705        V710   1.934       .  S
O705        C714   1.273       .  A
O706        V878   1.931       .  S
O706        C713   1.272       .  A
O707        V710   1.909       .  S
O707        C712   1.265       .  A
O708        V878   1.899       .  S
O708        C711   1.261       .  A
V709        O870   1.905   1_554  S
V709        O872   1.900   1_554  S
V709       V1214   2.086   1_545  T
V710        O874   1.931       .  S
V710        O876   1.899       .  S
V710       V1213   2.086       .  T
C711       O1037   1.266       .  A
C711       C1061   1.473       .  S
C712       O1038   1.266       .  A
C712        C742   1.485       .  S
C713       O1039   1.262       .  A
C713        C752   1.496       .  S
C714       O1040   1.263       .  A
C714       C1068   1.496       .  S
C715        C718   1.869       .  S
C715        C765   1.652       .  S
C715        C775   1.670       .  S
C716        C719   1.921   1_455  S
C716        C785   1.693       .  S
C716        C795   1.699       .  S
C717       C1054   1.901   1_545  S
C717        C822   1.669       .  S
C717        C832   1.704       .  S
C718       C1053   1.903       .  S
C718        C745   1.691       .  S
C718        C755   1.691       .  S
C719       C1056   1.851   1_545  S
C719        C722   1.699       .  S
C719        C735   1.713       .  S
C720       C1055   1.853       .  S
C720        C805   1.680       .  S
C720        C815   1.702       .  S
C721        C722   1.402       .  A
C721        C726   1.391       .  A
C721        H728   0.985       .  S
C722       C1059   1.498   1_545  A
C723       C1058   1.500       .  A
C723        C724   1.416       .  A
C723       Br730   1.950       .  S
C724       C1061   1.381       .  A
C724        H729   1.085       .  S
C725       C1047   1.469   1_545  S
C725       C1060   1.383   1_545  A
C725        C726   1.375       .  A
C726       Br727   1.930       .  S
C731        C732   1.392       .  A
C731        C736   1.431       .  A
C731        H738   1.084   1_545  S
C732       C1050   1.488       .  S
C732       C1069   1.379       .  A
C733       C1068   1.380       .  A
C733       C1070   1.397       .  A
C733       Br740   1.924       .  S
C734       C1069   1.395       .  A
C734        C735   1.468       .  A
C734        H739   1.079       .  S
C735        C736   1.460       .  A
C736       Br737   1.861       .  S
C741        C742   1.372       .  A
C741        C746   1.417       .  A
C741        H748   1.084       .  S
C742       C1079   1.374       .  A
C743       C1078   1.372       .  A
C743        C744   1.399       .  A
C743       Br750   1.885   1_565  S
C744       C1081   1.405       .  A
C744        H749   1.038       .  S
C745       C1080   1.404       .  A
C745        C746   1.503       .  A
C746       Br747   1.959       .  S
C751        C752   1.394       .  A
C751        C756   1.422       .  A
C751        H758   1.089       .  S
C752       C1089   1.405       .  A
C753       C1088   1.405   1_545  A
C753        C754   1.420       .  A
C753       Br760   1.925       .  S
C754       C1091   1.423   1_545  A
C754        H759   1.038       .  S
C755       C1090   1.423       .  A
C755        C756   1.466       .  A
C756       Br757   1.935       .  S
C761        C762   1.388       .  A
C761        C766   1.415       .  A
C761        H768   1.085       .  S
C763        C764   1.398       .  A
C763       Br770   1.901       .  S
C764        H769   1.057       .  S
C765        C766   1.493       .  A
C766       Br767   1.961       .  S
C771        C776   1.405       .  A
C771        H778   1.086       .  S
C772        C773   1.384       .  A
C773        C774   1.415       .  A
C773       Br780   1.885       .  S
C774        C775   1.402       .  A
C774        H779   1.065       .  S
C776       Br777   1.969       .  S
C781        C786   1.415       .  A
C781        H788   1.085       .  S
C782        C783   1.384   1_455  A
C783        C784   1.403       .  A
C783       Br790   1.922       .  S
C784        C785   1.428   1_655  A
C784        H789   1.060       .  S
C786       Br787   1.918       .  S
C791        C796   1.397       .  A
C791        H798   1.086       .  S
C792        C793   1.378       .  A
C793        C794   1.397       .  A
C793       Br800   1.878       .  S
C794        C795   1.424       .  A
C794        H799   1.037       .  S
C796       Br797   1.957       .  S
C801        C802   1.400       .  A
C801        C806   1.428       .  A
C801        H808   1.083       .  S
C802        C803   1.386       .  A
C803        C804   1.405       .  A
C803       Br810   1.910       .  S
C804        C805   1.448       .  A
C804        H809   1.061       .  S
C805        C806   1.425       .  A
C806       Br807   1.805       .  S
C811        C812   1.399       .  A
C811        C816   1.412       .  A
C811        H818   1.087       .  S
C812        C813   1.411       .  A
C813        C814   1.425       .  A
C813       Br820   1.910       .  S
C814        C815   1.437       .  A
C814        H819   1.062       .  S
C815        C816   1.438       .  A
C816       Br817   1.960       .  S
C821        C822   1.388       .  A
C821        C826   1.408       .  A
C821        H828   1.033       .  S
C822        C823   1.492       .  A
C823        C824   1.424       .  A
C823       Br830   1.927       .  S
C824        C825   1.380       .  A
C824        H829   1.083       .  S
C825        C826   1.384       .  A
C826       Br827   1.871       .  S
C831        C832   1.429       .  A
C831        C836   1.411       .  A
C831        H838   1.054       .  S
C832        C833   1.471       .  A
C833        C834   1.422       .  A
C833       Br840   1.940       .  S
C834        C835   1.388       .  A
C834        H839   1.082       .  S
C835        C836   1.380       .  A
C836       Br837   1.893       .  S
O841        V849   1.932       .  S
O841        C851   1.268       .  A
O842        C852   1.270       .  A
O843        V849   1.922       .  S
O843        C853   1.270       .  A
O844        C854   1.270       .  A
O845        V850   1.915   1_556  S
O845        C854   1.268       .  A
O846        C853   1.266       .  A
O847        V850   1.918   1_556  S
O847        C852   1.267       .  A
O848        C851   1.267       .  A
C851        C970   1.511       .  S
C852        C993   1.503       .  S
C853       C1003   1.500       .  S
C854        C980   1.503       .  S
O855        V863   1.903       .  S
O856        C866   1.268   1_655  A
O857        V863   1.879       .  S
O857        C867   1.256   1_655  A
O859        V864   1.914   1_556  S
O859        C868   1.269       .  A
O861        V864   1.894   1_556  S
O862        C865   1.260       .  A
C865        C930   1.482       .  S
C866        C950   1.487       .  S
C867        C960   1.462       .  S
C868        C940   1.479       .  S
O869        V877   1.896       .  S
O869       C1215   1.265   1_545  A
O870       C1216   1.266   1_545  A
O871        V877   1.894       .  S
O871       C1217   1.263   1_545  A
O872       C1218   1.263       .  A
O873        V878   1.934   1_556  S
O873        C882   1.273       .  A
O874        C881   1.272       .  A
O875        V878   1.909   1_556  S
O875        C880   1.265       .  A
O876        C879   1.261       .  A
V877       V1046   2.086   1_545  T
V878       V1045   2.086       .  T
C879       O1205   1.266       .  A
C879       C1229   1.473       .  S
C880       O1206   1.266       .  A
C880        C910   1.485       .  S
C881       O1207   1.262       .  A
C881        C920   1.496       .  S
C882       O1208   1.263       .  A
C882       C1236   1.496       .  S
C883        C886   1.869       .  S
C883        C933   1.652       .  S
C883        C943   1.670       .  S
C884        C887   1.921   1_455  S
C884        C953   1.693       .  S
C884        C963   1.699       .  S
C885       C1222   1.901   1_545  S
C885        C990   1.669       .  S
C885       C1000   1.704       .  S
C886       C1221   1.903       .  S
C886        C913   1.691       .  S
C886        C923   1.691       .  S
C887       C1224   1.851   1_545  S
C887        C890   1.699       .  S
C887        C903   1.713       .  S
C888       C1223   1.853       .  S
C888        C973   1.680       .  S
C888        C983   1.702       .  S
C889        C890   1.402       .  A
C889        C894   1.391       .  A
C889        H896   0.985       .  S
C890       C1227   1.498   1_545  A
C891       C1226   1.500       .  A
C891        C892   1.416       .  A
C891       Br898   1.950       .  S
C892       C1229   1.381       .  A
C892        H897   1.085       .  S
C893       C1215   1.469   1_545  S
C893       C1228   1.382   1_545  A
C893        C894   1.375       .  A
C894       Br895   1.930       .  S
C899        C900   1.392       .  A
C899        C904   1.431       .  A
C899        H906   1.084   1_545  S
C900       C1218   1.488       .  S
C900       C1237   1.379       .  A
C901       C1236   1.380       .  A
C901       C1238   1.397       .  A
C901       Br908   1.924       .  S
C902       C1237   1.395       .  A
C902        C903   1.468       .  A
C902        H907   1.079       .  S
C903        C904   1.460       .  A
C904       Br905   1.861       .  S
C909        C910   1.372       .  A
C909        C914   1.417       .  A
C909        H916   1.084       .  S
C910       C1247   1.374       .  A
C911       C1246   1.372       .  A
C911        C912   1.399       .  A
C911       Br918   1.885   1_565  S
C912       C1249   1.405       .  A
C912        H917   1.038       .  S
C913       C1248   1.404       .  A
C913        C914   1.503       .  A
C914       Br915   1.959       .  S
C919        C920   1.394       .  A
C919        C924   1.422       .  A
C919        H926   1.089       .  S
C920       C1257   1.405       .  A
C921       C1256   1.405   1_545  A
C921        C922   1.420       .  A
C921       Br928   1.925       .  S
C922       C1259   1.423   1_545  A
C922        H927   1.038       .  S
C923       C1258   1.423       .  A
C923        C924   1.466       .  A
C924       Br925   1.935       .  S
C929        C930   1.388       .  A
C929        C934   1.415       .  A
C929        H936   1.085       .  S
C931        C932   1.398       .  A
C931       Br938   1.901       .  S
C932        H937   1.057       .  S
C933        C934   1.493       .  A
C934       Br935   1.961       .  S
C939        C944   1.405       .  A
C939        H946   1.086       .  S
C940        C941   1.384       .  A
C941        C942   1.415       .  A
C941       Br948   1.885       .  S
C942        C943   1.402       .  A
C942        H947   1.065       .  S
C944       Br945   1.969       .  S
C949        C954   1.415       .  A
C949        H956   1.085       .  S
C950        C951   1.384   1_455  A
C951        C952   1.403       .  A
C951       Br958   1.922       .  S
C952        C953   1.428   1_655  A
C952        H957   1.060       .  S
C954       Br955   1.918       .  S
C959        C964   1.397       .  A
C959        H966   1.086       .  S
C960        C961   1.378       .  A
C961        C962   1.397       .  A
C961       Br968   1.878       .  S
C962        C963   1.424       .  A
C962        H967   1.037       .  S
C964       Br965   1.957       .  S
C969        C970   1.400       .  A
C969        C974   1.428       .  A
C969        H976   1.083       .  S
C970        C971   1.386       .  A
C971        C972   1.405       .  A
C971       Br978   1.910       .  S
C972        C973   1.448       .  A
C972        H977   1.061       .  S
C973        C974   1.425       .  A
C974       Br975   1.805       .  S
C979        C980   1.399       .  A
C979        C984   1.412       .  A
C979        H986   1.087       .  S
C980        C981   1.411       .  A
C981        C982   1.425       .  A
C981       Br988   1.910       .  S
C982        C983   1.437       .  A
C982        H987   1.062       .  S
C983        C984   1.438       .  A
C984       Br985   1.960       .  S
C989        C990   1.388       .  A
C989        C994   1.408       .  A
C989        H996   1.033       .  S
C990        C991   1.491       .  A
C991        C992   1.424       .  A
C991       Br998   1.927       .  S
C992        C993   1.380       .  A
C992        H997   1.083       .  S
C993        C994   1.384       .  A
C994       Br995   1.871       .  S
C999       C1000   1.429       .  A
C999       C1004   1.411       .  A
C999       H1006   1.054       .  S
C1000      C1001   1.471       .  A
C1001      C1002   1.422       .  A
C1001     Br1008   1.940       .  S
C1002      C1003   1.388       .  A
C1002      H1007   1.082       .  S
C1003      C1004   1.380       .  A
C1004     Br1005   1.893       .  S
O1009      V1017   1.937   1_554  S
O1009      C1019   1.270       .  A
O1010      V1185   1.921       .  S
O1010      C1020   1.272       .  A
O1011      V1017   1.923   1_554  S
O1011      C1021   1.270       .  A
O1012      V1185   1.922       .  S
O1012      C1022   1.269       .  A
O1013      V1018   1.917       .  S
O1013      C1022   1.269       .  A
O1014      V1186   1.925       .  S
O1014      C1021   1.269       .  A
O1015      V1018   1.916       .  S
O1015      C1020   1.265       .  A
O1016      V1186   1.913       .  S
O1016      C1019   1.266       .  A
V1017      O1178   1.921       .  S
V1017      O1180   1.922       .  S
V1017      V1186   2.081   1_556  T
V1018      O1182   1.925       .  S
V1018      O1184   1.913       .  S
V1018      V1185   2.081       .  T
C1019      C1138   1.513       .  S
C1020      C1161   1.504       .  S
C1021      C1171   1.504       .  S
C1022      C1148   1.503       .  S
O1023      V1031   1.900       .  S
O1024      V1199   1.909       .  S
O1024      C1034   1.268   1_655  A
O1025      V1031   1.874       .  S
O1025      C1035   1.254   1_655  A
O1026      V1199   1.887       .  S
O1027      V1032   1.915       .  S
O1027      C1036   1.269       .  A
O1028      V1200   1.900       .  S
O1029      V1032   1.890       .  S
O1030      V1200   1.895       .  S
O1030      C1033   1.259       .  A
V1031      O1192   1.909   1_554  S
V1031      O1194   1.887   1_554  S
V1032      O1196   1.900       .  S
V1032      O1198   1.895       .  S
C1033      C1098   1.480       .  S
C1034      C1118   1.485       .  S
C1035      C1128   1.453       .  S
C1036      C1108   1.476       .  S
O1037      V1045   1.895       .  S
O1038      V1213   1.908       .  S
O1039      V1045   1.890       .  S
O1040      V1213   1.904       .  S
O1041      V1046   1.928       .  S
O1041      C1050   1.271   1_565  A
O1042      V1214   1.930       .  S
O1042      C1049   1.272       .  A
O1043      V1046   1.905       .  S
O1043      C1048   1.264       .  A
O1044      V1214   1.896       .  S
O1044      C1047   1.261       .  A
V1045      O1206   1.908   1_554  S
V1045      O1208   1.904   1_554  S
V1046      O1210   1.930       .  S
V1046      O1212   1.896       .  S
C1048      C1078   1.480       .  S
C1049      C1088   1.500       .  S
C1051      C1054   1.865       .  S
C1051      C1101   1.643       .  S
C1051      C1111   1.666       .  S
C1052      C1055   1.924   1_455  S
C1052      C1121   1.684       .  S
C1052      C1131   1.694       .  S
C1053      C1158   1.673       .  S
C1053      C1168   1.708       .  S
C1054      C1081   1.690       .  S
C1054      C1091   1.695       .  S
C1055      C1058   1.704       .  S
C1055      C1071   1.715       .  S
C1056      C1141   1.680       .  S
C1056      C1151   1.705       .  S
C1057      C1058   1.403       .  A
C1057      C1062   1.393       .  A
C1057      H1064   0.985       .  S
C1059      C1060   1.414       .  A
C1059     Br1066   1.953       .  S
C1060      H1065   1.085       .  S
C1061      C1062   1.372       .  A
C1062     Br1063   1.925       .  S
C1067      C1068   1.395       .  A
C1067      C1072   1.435       .  A
C1067      H1074   1.084       .  S
C1069     Br1076   1.925       .  S
C1070      C1071   1.468       .  A
C1070      H1075   1.079       .  S
C1071      C1072   1.462       .  A
C1072     Br1073   1.869       .  S
C1077      C1078   1.371       .  A
C1077      C1082   1.415       .  A
C1077      H1084   1.084       .  S
C1079      C1080   1.401       .  A
C1079     Br1086   1.882       .  S
C1080      H1085   1.040       .  S
C1081      C1082   1.502       .  A
C1082     Br1083   1.961       .  S
C1087      C1088   1.396       .  A
C1087      C1092   1.424       .  A
C1087      H1094   1.089       .  S
C1089      C1090   1.420       .  A
C1089     Br1096   1.925       .  S
C1090      H1095   1.042       .  S
C1091      C1092   1.465       .  A
C1092     Br1093   1.927       .  S
C1097      C1098   1.390       .  A
C1097      C1102   1.415       .  A
C1097      H1104   1.085       .  S
C1099      C1100   1.393       .  A
C1099     Br1106   1.900       .  S
C1100      H1105   1.056       .  S
C1101      C1102   1.493       .  A
C1102     Br1103   1.965       .  S
C1107      C1112   1.404       .  A
C1107      H1114   1.086       .  S
C1108      C1109   1.383       .  A
C1109      C1110   1.413       .  A
C1109     Br1116   1.883       .  S
C1110      C1111   1.399       .  A
C1110      H1115   1.063       .  S
C1112     Br1113   1.969       .  S
C1117      C1122   1.413       .  A
C1117      H1124   1.085       .  S
C1118      C1119   1.386   1_455  A
C1119      C1120   1.405       .  A
C1119     Br1126   1.926       .  S
C1120      C1121   1.432   1_655  A
C1120      H1125   1.064       .  S
C1122     Br1123   1.925       .  S
C1127      C1132   1.395       .  A
C1127      H1134   1.087       .  S
C1128      C1129   1.373       .  A
C1129      C1130   1.391       .  A
C1129     Br1136   1.867       .  S
C1130      C1131   1.412       .  A
C1130      H1135   1.031       .  S
C1132     Br1133   1.960       .  S
C1137      C1138   1.403       .  A
C1137      C1142   1.430       .  A
C1137      H1144   1.083       .  S
C1138      C1139   1.385       .  A
C1139      C1140   1.403       .  A
C1139     Br1146   1.908       .  S
C1140      C1141   1.447       .  A
C1140      H1145   1.061       .  S
C1141      C1142   1.428       .  A
C1142     Br1143   1.817       .  S
C1147      C1148   1.400       .  A
C1147      C1152   1.411       .  A
C1147      H1154   1.087       .  S
C1148      C1149   1.412       .  A
C1149      C1150   1.427       .  A
C1149     Br1156   1.910       .  S
C1150      C1151   1.439       .  A
C1150      H1155   1.062       .  S
C1151      C1152   1.437       .  A
C1152     Br1153   1.965       .  S
C1157      C1158   1.386       .  A
C1157      C1162   1.405       .  A
C1157      H1164   1.034       .  S
C1158      C1159   1.496       .  A
C1159      C1160   1.427       .  A
C1159     Br1166   1.931       .  S
C1160      C1161   1.379       .  A
C1160      H1165   1.082       .  S
C1161      C1162   1.378       .  A
C1162     Br1163   1.855       .  S
C1167      C1168   1.429       .  A
C1167      C1172   1.414       .  A
C1167      H1174   1.050       .  S
C1168      C1169   1.469       .  A
C1169      C1170   1.423       .  A
C1169     Br1176   1.940       .  S
C1170      C1171   1.390       .  A
C1170      H1175   1.081       .  S
C1171      C1172   1.381       .  A
C1172     Br1173   1.892       .  S
O1177      V1185   1.937       .  S
O1177      C1187   1.270       .  A
O1178      C1188   1.272       .  A
O1179      V1185   1.923       .  S
O1179      C1189   1.270       .  A
O1180      C1190   1.269       .  A
O1181      V1186   1.917   1_556  S
O1181      C1190   1.269       .  A
O1182      C1189   1.269       .  A
O1183      V1186   1.916   1_556  S
O1183      C1188   1.265       .  A
O1184      C1187   1.266       .  A
C1187      C1306   1.513       .  S
C1188      C1329   1.504       .  S
C1189      C1339   1.504       .  S
C1190      C1316   1.503       .  S
O1191      V1199   1.900       .  S
O1192      C1202   1.268   1_655  A
O1193      V1199   1.873       .  S
O1193      C1203   1.254   1_655  A
O1195      V1200   1.915   1_556  S
O1195      C1204   1.269       .  A
O1197      V1200   1.890   1_556  S
O1198      C1201   1.259       .  A
C1201      C1266   1.480       .  S
C1202      C1286   1.485       .  S
C1203      C1296   1.453       .  S
C1204      C1276   1.476       .  S
O1205      V1213   1.895       .  S
O1207      V1213   1.890       .  S
O1209      V1214   1.928   1_556  S
O1209      C1218   1.271   1_565  A
O1210      C1217   1.272       .  A
O1211      V1214   1.905   1_556  S
O1211      C1216   1.264       .  A
O1212      C1215   1.261       .  A
C1216      C1246   1.480       .  S
C1217      C1256   1.500       .  S
C1219      C1222   1.865       .  S
C1219      C1269   1.643       .  S
C1219      C1279   1.666       .  S
C1220      C1223   1.924   1_455  S
C1220      C1289   1.684       .  S
C1220      C1299   1.694       .  S
C1221      C1326   1.673       .  S
C1221      C1336   1.708       .  S
C1222      C1249   1.690       .  S
C1222      C1259   1.695       .  S
C1223      C1226   1.704       .  S
C1223      C1239   1.715       .  S
C1224      C1309   1.680       .  S
C1224      C1319   1.705       .  S
C1225      C1226   1.403       .  A
C1225      C1230   1.393       .  A
C1225      H1232   0.985       .  S
C1227      C1228   1.414       .  A
C1227     Br1234   1.953       .  S
C1228      H1233   1.085       .  S
C1229      C1230   1.372       .  A
C1230     Br1231   1.925       .  S
C1235      C1236   1.395       .  A
C1235      C1240   1.435       .  A
C1235      H1242   1.084       .  S
C1237     Br1244   1.925       .  S
C1238      C1239   1.468       .  A
C1238      H1243   1.079       .  S
C1239      C1240   1.462       .  A
C1240     Br1241   1.869       .  S
C1245      C1246   1.371       .  A
C1245      C1250   1.415       .  A
C1245      H1252   1.084       .  S
C1247      C1248   1.401       .  A
C1247     Br1254   1.882       .  S
C1248      H1253   1.040       .  S
C1249      C1250   1.502       .  A
C1250     Br1251   1.961       .  S
C1255      C1256   1.396       .  A
C1255      C1260   1.424       .  A
C1255      H1262   1.089       .  S
C1257      C1258   1.420       .  A
C1257     Br1264   1.925       .  S
C1258      H1263   1.042       .  S
C1259      C1260   1.465       .  A
C1260     Br1261   1.927       .  S
C1265      C1266   1.390       .  A
C1265      C1270   1.415       .  A
C1265      H1272   1.085       .  S
C1267      C1268   1.393       .  A
C1267     Br1274   1.900       .  S
C1268      H1273   1.056       .  S
C1269      C1270   1.493       .  A
C1270     Br1271   1.965       .  S
C1275      C1280   1.404       .  A
C1275      H1282   1.086       .  S
C1276      C1277   1.383       .  A
C1277      C1278   1.413       .  A
C1277     Br1284   1.883       .  S
C1278      C1279   1.399       .  A
C1278      H1283   1.063       .  S
C1280     Br1281   1.969       .  S
C1285      C1290   1.413       .  A
C1285      H1292   1.085       .  S
C1286      C1287   1.386   1_455  A
C1287      C1288   1.405       .  A
C1287     Br1294   1.926       .  S
C1288      C1289   1.432   1_655  A
C1288      H1293   1.064       .  S
C1290     Br1291   1.925       .  S
C1295      C1300   1.395       .  A
C1295      H1302   1.087       .  S
C1296      C1297   1.373       .  A
C1297      C1298   1.391       .  A
C1297     Br1304   1.867       .  S
C1298      C1299   1.412       .  A
C1298      H1303   1.031       .  S
C1300     Br1301   1.960       .  S
C1305      C1306   1.403       .  A
C1305      C1310   1.430       .  A
C1305      H1312   1.083       .  S
C1306      C1307   1.385       .  A
C1307      C1308   1.403       .  A
C1307     Br1314   1.908       .  S
C1308      C1309   1.447       .  A
C1308      H1313   1.061       .  S
C1309      C1310   1.428       .  A
C1310     Br1311   1.817       .  S
C1315      C1316   1.400       .  A
C1315      C1320   1.411       .  A
C1315      H1322   1.087       .  S
C1316      C1317   1.412       .  A
C1317      C1318   1.427       .  A
C1317     Br1324   1.910       .  S
C1318      C1319   1.439       .  A
C1318      H1323   1.062       .  S
C1319      C1320   1.437       .  A
C1320     Br1321   1.965       .  S
C1325      C1326   1.386       .  A
C1325      C1330   1.405       .  A
C1325      H1332   1.034       .  S
C1326      C1327   1.496       .  A
C1327      C1328   1.427       .  A
C1327     Br1334   1.931       .  S
C1328      C1329   1.379       .  A
C1328      H1333   1.082       .  S
C1329      C1330   1.378       .  A
C1330     Br1331   1.855       .  S
C1335      C1336   1.429       .  A
C1335      C1340   1.414       .  A
C1335      H1342   1.050       .  S
C1336      C1337   1.469       .  A
C1337      C1338   1.423       .  A
C1337     Br1344   1.940       .  S
C1338      C1339   1.390       .  A
C1338      H1343   1.081       .  S
C1339      C1340   1.381       .  A
C1340     Br1341   1.892       .  S
