geometry optimzed in LAMMPS
_audit_creation_date              2020-11-30 
_audit_creation_method            'lammps2cif' 
_symmetry_space_group_name_H-M    'P1' 
_symmetry_Int_Tables_number       1 
_symmetry_cell_setting            triclinic 
loop_ 
_symmetry_equiv_pos_as_xyz 
  x,y,z 
_cell_length_a                    34.59280981 
_cell_length_b                    34.49155270264207 
_cell_length_c                    34.42943039789973 
_cell_angle_alpha                 89.86393030698623 
_cell_angle_beta                  90.15984309947348 
_cell_angle_gamma                 89.54002342001468 
loop_ 
_atom_site_label 
_atom_site_type_symbol 
_atom_site_fract_x 
_atom_site_fract_y 
_atom_site_fract_z 
_atom_site_charge 
C1          C  0.72863971  0.78064850  0.78614382     0.79500
N2          N  0.75183374  0.75005102  0.79541502    -0.78800
C3          C  0.78350303  0.74150043  0.77372232     0.82000
N4          N  0.79146417  0.76353549  0.74206904    -0.78700
C5          C  0.76851989  0.79426631  0.73243107     0.82100
N6          N  0.73691713  0.80240162  0.75432686    -0.80400
C7          C  0.23555632  0.65938421  0.13244214     0.79500
N8          N  0.24430824  0.63585738  0.16303370    -0.78800
C9          C  0.27359380  0.64474496  0.18764574     0.82000
N10         N  0.29350843  0.67802477  0.18220399    -0.78700
C11         C  0.28496231  0.70204038  0.15209413     0.82100
N12         N  0.25570824  0.69272266  0.12742993    -0.80400
C13         C  0.78016902  0.66099588  0.32080166     0.79500
N14         N  0.76146728  0.63068748  0.30422248    -0.78800
C15         C  0.77546106  0.61348834  0.27171651     0.82000
N16         N  0.80866688  0.62692116  0.25571396    -0.78700
C17         C  0.82785623  0.65711019  0.27185766     0.82100
N18         N  0.81330472  0.67412418  0.30438574    -0.80400
C19         C  0.10682614  0.16847310  0.16743561     0.79500
N20         N  0.12495521  0.13602032  0.18078550    -0.78800
C21         C  0.15761772  0.12248539  0.16349892     0.82000
N22         N  0.17204212  0.14179017  0.13239568    -0.78700
C23         C  0.15432751  0.17444017  0.11872054     0.82100
N24         N  0.12178575  0.18768806  0.13643020    -0.80400
C25         C  0.64817563  0.19883099  0.27586053     0.79500
N26         N  0.68040270  0.19287748  0.29781131    -0.78800
C27         C  0.70329372  0.16127366  0.29190772     0.82000
N28         N  0.69406476  0.13594117  0.26321253    -0.78700
C29         C  0.66190259  0.14149596  0.24113026     0.82100
N30         N  0.63936952  0.17330620  0.24730700    -0.80400
C31         C  0.66113136  0.32823346  0.77638015     0.79500
N32         N  0.62918559  0.31466977  0.75793527    -0.78800
C33         C  0.61099109  0.28238132  0.77076310     0.82000
N34         N  0.62533863  0.26323037  0.80230066    -0.78700
C35         C  0.65742635  0.27609967  0.82096637     0.82100
N36         N  0.67519986  0.30866654  0.80777445    -0.80400
C37         C  0.27149641  0.76144853  0.59787147     0.79500
N38         N  0.30443092  0.74819356  0.61539718    -0.78800
C39         C  0.31508344  0.76196043  0.65091286     0.82000
N40         N  0.29217246  0.78847960  0.66884683    -0.78700
C41         C  0.25928464  0.80180164  0.65180090     0.82100
N42         N  0.24927192  0.78844259  0.61620825    -0.80400
O43         O  0.10658391  0.07913170  0.01452776    -0.89000
C44         C  0.99006493  0.06738409  0.99429420     0.87000
Mg45       Mg  0.14081232  0.02975311  0.02449576     1.58100
O46         O  0.01146421  0.10453020  0.08641245    -0.88800
O47         O  0.08616150  0.13156196  0.04449078    -0.76100
C48         C  0.04314080  0.92112895  0.15229978     0.92000
O49         O  0.06218710  0.01104611  0.97094219    -0.75900
O50         O  0.07294064  0.91649332  0.13065352    -0.83400
Mg51       Mg  0.07108876  0.07748944  0.96416214     1.58000
C52         C  0.97226398  0.05918308  0.18263088     0.92000
O53         O  0.08418521  0.14706561  0.96146715    -0.81700
H54         H  0.03932108  0.14162897  0.12082728    -0.07000
C55         C  0.99364877  0.98727731  0.07591406     0.86900
O56         O  0.13671952  0.04143489  0.09083514    -0.76200
O57         O  0.02049896  0.08436823  0.00261147    -0.89000
O58         O  0.96079450  0.08280464  0.15602649    -0.81800
C59         C  0.92234099  0.14417002  0.04095415     0.92100
C60         C  0.06039834  0.17370480  0.97226587     0.91900
Mg61       Mg  0.03474857  0.01876185  0.14354964     1.58000
O62         O  0.02700123  0.95419763  0.15524794    -0.81700
O63         O  0.04277042  0.08547279  0.13871273    -0.75900
O64         O  0.95564866  0.14789282  0.02608656    -0.81800
O65         O  0.12167670  0.05954412  0.92048204    -0.83500
O66         O  0.15626666  0.96019443  0.09216329    -0.81800
C67         C  0.03123870  0.11193477  0.11543262     0.86400
O68         O  0.08533151  0.01054658  0.11111915    -0.88900
O69         O  0.00098176  0.01835082  0.09254484    -0.89000
O70         O  0.01997241  0.96212369  0.06816746    -0.76100
Mg71       Mg  0.01987532  0.13605273  0.03505289     1.58000
O72         O  0.91734157  0.12120212  0.07003330    -0.83500
H73         H  0.14241521  0.11435065  0.04285508    -0.07200
O74         O  0.09098292  0.99534256  0.02617977    -0.88700
H75         H  0.06515328  0.95605032  0.99234398    -0.07000
H76         H  0.11893508  0.04057206  0.14704665    -0.07200
C77         C  0.07273577  0.98610351  0.99649134     0.86300
C78         C  0.11306858  0.10850551  0.03397777     0.86900
C79         C  0.11379068  0.03099982  0.11773085     0.87000
H80         H  0.96409987  0.98127074  0.06776950    -0.07200
O81         O  0.96498200  0.05881278  0.02004299    -0.76200
Mg82       Mg  0.08684766  0.95879718  0.07818660     1.58000
H83         H  0.98473172  0.05942121  0.96442302    -0.07200
C84         C  0.14514081  0.03100213  0.92633273     0.92000
O85         O  0.17324385  0.97611416  0.03319350    -0.83400
C86         C  0.18233982  0.97103210  0.06808101     0.92000
O87         O  0.02608461  0.16485282  0.97918604    -0.83400
Mg88       Mg  0.96137736  0.06921594  0.08656747     1.58200
O89         O  0.15097337  0.01810422  0.96039412    -0.81800
O90         O  0.97994660  0.02479837  0.17380611    -0.83400
C91         C  0.10244701  0.27249816  0.96710531     0.79500
N92         N  0.09804866  0.23358106  0.96184291    -0.78800
C93         C  0.07120373  0.21400480  0.98230220     0.82000
N94         N  0.04869688  0.23378851  0.00823236    -0.78700
C95         C  0.05374628  0.27228651  0.01517789     0.82100
N96         N  0.07999954  0.29168485  0.99345812    -0.80400
C97         C  0.96641832  0.10399419  0.28048053     0.79500
N98         N  0.99177106  0.08103996  0.30091484    -0.78800
C99         C  0.01318018  0.05347247  0.28235914     0.82000
N100        N  0.00671920  0.04762855  0.24378821    -0.78700
C101        C  0.98157533  0.07030588  0.22305839     0.82100
N102        N  0.96173554  0.09850353  0.24155208    -0.80400
C103        C  0.28144901  0.96928011  0.11000421     0.79500
N104        N  0.24260742  0.96365372  0.10646802    -0.78800
C105        C  0.22213907  0.98279092  0.07883302     0.82000
N106        N  0.24092159  0.00788258  0.05474706    -0.78700
C107        C  0.27941517  0.01501277  0.05841095     0.82100
N108        N  0.29965147  0.99431256  0.08544105    -0.80400
O109        O  0.95114566  0.55349265  0.35503275    -0.89000
C110        C  0.87549595  0.63848610  0.37040711     0.87000
Mg111      Mg  0.93460744  0.50687800  0.31807955     1.58100
O112        O  0.87851604  0.57528516  0.45068219    -0.88800
O113        O  0.96359936  0.55972622  0.41757772    -0.76100
C114        C  0.74902707  0.47437629  0.35865769     0.92000
O115        O  0.88896303  0.58998379  0.29644205    -0.75900
O116        O  0.77094276  0.46173329  0.33140638    -0.83400
Mg117      Mg  0.94249024  0.61065825  0.33052004     1.58000
C118        C  0.77675172  0.53405116  0.50159266     0.92000
O119        O  0.99823655  0.63872433  0.36409222    -0.81700
H120        H  0.90994776  0.54591368  0.48995209    -0.07000
C121        C  0.79281014  0.56387739  0.37493605     0.86900
O122        O  0.91635105  0.46923646  0.36989050    -0.76200
O123        O  0.90508366  0.61969228  0.37855002    -0.89000
O124        O  0.79308271  0.56757087  0.49867499    -0.81800
C125        C  0.86161510  0.68107626  0.46083828     0.92100
C126        C  0.00165691  0.65431682  0.39802411     0.91900
Mg127      Mg  0.81762186  0.49694814  0.42468211     1.58000
O128        O  0.76306352  0.48615730  0.39048746    -0.81700
O129        O  0.87000427  0.51300691  0.46238275    -0.75900
O130        O  0.89253575  0.66595007  0.44829366    -0.81800
O131        O  0.97399059  0.59911667  0.27125944    -0.83500
O132        O  0.86183193  0.43629491  0.29280302    -0.81800
C133        C  0.88672318  0.54517756  0.46891523     0.86400
O134        O  0.85416629  0.48209169  0.37723577    -0.88900
O135        O  0.81113914  0.55439989  0.40448195    -0.89000
O136        O  0.79690516  0.54643317  0.34266890    -0.76100
Mg137      Mg  0.92611784  0.61178916  0.43570499     1.58000
O138        O  0.83420022  0.65997017  0.47410145    -0.83500
H139        H  0.99106023  0.52119766  0.38249536    -0.07200
O140        O  0.87794624  0.52912699  0.31138115    -0.88700
H141        H  0.84630687  0.55802885  0.27224595    -0.07000
H142        H  0.88192289  0.44153228  0.40849658    -0.07200
C143        C  0.87018034  0.55869050  0.29238821     0.86300
C144        C  0.96989665  0.54431304  0.38453683     0.86900
C145        C  0.88365503  0.46299969  0.38566857     0.87000
H146        H  0.77332415  0.58835804  0.37643294    -0.07200
O147        O  0.84390903  0.63454400  0.38884947    -0.76200
Mg148      Mg  0.82975088  0.49252480  0.32055566     1.58000
H149        H  0.87644816  0.65846998  0.34645849    -0.07200
C150        C  0.96129165  0.57181958  0.24946422     0.92000
O151        O  0.92136099  0.45738803  0.28018656    -0.83400
C152        C  0.89521860  0.43220777  0.27671408     0.92000
O153        O  0.97633119  0.64957244  0.42402804    -0.83400
Mg154      Mg  0.82183431  0.60119022  0.44252380     1.58200
O155        O  0.94813035  0.54085066  0.26396575    -0.81800
O156        O  0.78042852  0.50866432  0.47537645    -0.83400
C157        C  0.64784085  0.46410734  0.32320935     0.79500
N158        N  0.68695538  0.46019839  0.32616642    -0.78800
C159        C  0.70674342  0.47986429  0.35355241     0.82000
N160        N  0.68708961  0.50438084  0.37773097    -0.78700
C161        C  0.64818517  0.51018934  0.37410270     0.82100
N162        N  0.62854370  0.48879425  0.34751496    -0.80400
C163        C  0.97572869  0.60169451  0.14626510     0.79500
N164        N  0.94961527  0.57865410  0.12786625    -0.78800
C165        C  0.92642803  0.55467161  0.14845427     0.82000
N166        N  0.93138777  0.55246064  0.18769518    -0.78700
C167        C  0.95709530  0.57567759  0.20667172     0.82100
N168        N  0.97909128  0.60034222  0.18574869    -0.80400
C169        C  0.83101041  0.78442047  0.47054511     0.79500
N170        N  0.85505183  0.80194811  0.44469242    -0.78800
C171        C  0.87982332  0.78056410  0.42277927     0.82000
N172        N  0.88196543  0.74156305  0.42915887    -0.78700
C173        C  0.85791874  0.72357206  0.45489358     0.82100
N174        N  0.83234806  0.74519014  0.47526820    -0.80400
O175        O  0.09618623  0.85912441  0.43850542    -0.89000
C176        C  0.97877743  0.87334400  0.45457336     0.87000
Mg177      Mg  0.12910224  0.90952298  0.43172321     1.58100
O178        O  0.00278247  0.83667614  0.36256551    -0.88800
O179        O  0.07602817  0.80784246  0.40692043    -0.76100
C180        C  0.03161279  0.02141074  0.30479875     0.92000
O181        O  0.05037341  0.92620148  0.48529231    -0.75900
O182        O  0.05981207  0.02602577  0.32859886    -0.83400
Mg183      Mg  0.05912623  0.85946339  0.48782334     1.58000
C184        C  0.96666482  0.88522916  0.26651817     0.92000
O185        O  0.07117217  0.78984789  0.48647087    -0.81700
H186        H  0.03260105  0.80058764  0.32816856    -0.07000
C187        C  0.98194665  0.95334553  0.37591334     0.86900
O188        O  0.12686879  0.90109043  0.36467898    -0.76200
O189        O  0.00960616  0.85641633  0.44678590    -0.89000
O190        O  0.95511673  0.86087006  0.29209925    -0.81800
C191        C  0.91282150  0.80027216  0.40406185     0.92100
C192        C  0.04570231  0.76587442  0.47439607     0.91900
Mg193      Mg  0.02574362  0.92422233  0.30839056     1.58000
O194        O  0.01737970  0.98823828  0.29894662    -0.81700
O195        O  0.03504027  0.85722101  0.31180564    -0.75900
O196        O  0.94509906  0.79565457  0.42088848    -0.81800
O197        O  0.10964959  0.87328317  0.53333303    -0.83500
O198        O  0.14283623  0.98186421  0.36903011    -0.81800
C199        C  0.02365507  0.83007136  0.33411939     0.86400
O200        O  0.07514761  0.93169404  0.34331600    -0.88900
O201        O  0.99119166  0.92322192  0.35842049    -0.89000
O202        O  0.00701540  0.97812906  0.38676379    -0.76100
Mg203      Mg  0.00904181  0.80482372  0.41442238     1.58000
O204        O  0.90934355  0.82211145  0.37400887    -0.83500
H205        H  0.13245717  0.82360867  0.41026929    -0.07200
O206        O  0.07780457  0.94289644  0.43017473    -0.88700
H207        H  0.05319930  0.98181352  0.46566655    -0.07000
H208        H  0.11137856  0.90360933  0.30771643    -0.07200
C209        C  0.06034846  0.95172109  0.46039227     0.86300
C210        C  0.10296418  0.83011767  0.41842003     0.86900
C211        C  0.10457041  0.91199767  0.33715787     0.87000
H212        H  0.95181338  0.95859643  0.38245365    -0.07200
O213        O  0.95402863  0.88212057  0.42827212    -0.76200
Mg214      Mg  0.07366610  0.98180868  0.37966280     1.58000
H215        H  0.97266814  0.88081359  0.48441990    -0.07200
C216        C  0.13309636  0.90175684  0.52910450     0.92000
O217        O  0.15905530  0.96526764  0.42808890    -0.83400
C218        C  0.16863195  0.97063841  0.39355252     0.92000
O219        O  0.01152580  0.77734172  0.47213474    -0.83400
Mg220      Mg  0.95273271  0.87303364  0.36130354     1.58200
O221        O  0.13843414  0.91688916  0.49604494    -0.81800
O222        O  0.97084397  0.91984502  0.27618194    -0.83400
C223        C  0.10092871  0.69266207  0.41786392     0.79500
N224        N  0.07218115  0.67074720  0.40182239    -0.78800
C225        C  0.03452541  0.67947342  0.41013021     0.82000
N226        N  0.02670463  0.70902948  0.43544721    -0.78700
C227        C  0.05539100  0.73040647  0.45192388     0.82100
N228        N  0.09225267  0.72213918  0.44260461    -0.80400
C229        C  0.24891830  0.93506626  0.33204533     0.79500
N230        N  0.21659148  0.95404040  0.34406473    -0.78800
C231        C  0.20642519  0.95423621  0.38164161     0.82000
N232        N  0.22881375  0.93431339  0.40765864    -0.78700
C233        C  0.26123892  0.91440726  0.39640017     0.82100
N234        N  0.27169607  0.91518399  0.35809817    -0.80400
C235        C  0.01148770  0.82405086  0.19040776     0.79500
N236        N  0.98974235  0.83549909  0.22118560    -0.78800
C237        C  0.98516459  0.87327023  0.22966698     0.82000
N238        N  0.00341465  0.90003545  0.20722357    -0.78700
C239        C  0.02586503  0.88946399  0.17635319     0.82100
N240        N  0.02961150  0.85094177  0.16755549    -0.80400
O241        O  0.58145157  0.45410807  0.87731620    -0.89000
C242        C  0.56362066  0.37625202  0.79461292     0.87000
Mg243      Mg  0.61873274  0.43823463  0.92419855     1.58100
O244        O  0.48472254  0.38202364  0.85858115    -0.88800
O245        O  0.51899551  0.46652264  0.87131911    -0.76100
C246        C  0.57669670  0.25374253  0.96123977     0.92000
O247        O  0.63831794  0.39000280  0.84219340    -0.75900
O248        O  0.60406014  0.27523577  0.97386641    -0.83400
Mg249      Mg  0.60454366  0.44362701  0.82015314     1.58000
C250        C  0.43366417  0.28336534  0.90505141     0.92000
O251        O  0.57074788  0.49980876  0.79154609    -0.81700
H252        H  0.44605102  0.41481992  0.88685854    -0.07000
C253        C  0.55961255  0.29637452  0.87158029     0.86900
O254        O  0.56735033  0.42190341  0.96274948    -0.76200
O255        O  0.55630326  0.40633230  0.81285760    -0.89000
O256        O  0.43601245  0.29865311  0.87075010    -0.81800
C257        C  0.47253135  0.36254297  0.75306047     0.92100
C258        C  0.53658380  0.50307344  0.77650196     0.91900
Mg259      Mg  0.51145214  0.32320259  0.93863603     1.58000
O260        O  0.54504195  0.26833781  0.94968912    -0.81700
O261        O  0.47387416  0.37572991  0.92138842    -0.75900
O262        O  0.48619654  0.39364858  0.76663603    -0.81800
O263        O  0.66428338  0.47420689  0.82994878    -0.83500
O264        O  0.64388784  0.36633612  0.99748905    -0.81800
C265        C  0.46694234  0.39140682  0.88847970     0.86400
O266        O  0.55918250  0.35949091  0.95156838    -0.88900
O267        O  0.53025811  0.31486315  0.88104091    -0.89000
O268        O  0.59198785  0.30052362  0.88865969    -0.76100
Mg269      Mg  0.49979866  0.42825066  0.82039483     1.58000
O270        O  0.45900910  0.33630233  0.77570498    -0.83500
H271        H  0.55436266  0.49470391  0.90877422    -0.07200
O272        O  0.62445107  0.38099376  0.90379414    -0.88700
H273        H  0.66270683  0.34796609  0.87568341    -0.07000
H274        H  0.52873846  0.38852682  0.99154273    -0.07200
C275        C  0.64276805  0.37214199  0.87426953     0.86300
C276        C  0.55210121  0.47307634  0.88623920     0.86900
C277        C  0.55130139  0.38951184  0.96992275     0.87000
H278        H  0.55783617  0.27664254  0.84739505    -0.07200
O279        O  0.54469718  0.34506973  0.79948031    -0.76200
Mg280      Mg  0.61514838  0.33368173  0.94182211     1.58000
H281        H  0.58701138  0.37646239  0.77426053    -0.07200
C282        C  0.68641379  0.46130763  0.85720354     0.92000
O283        O  0.65653731  0.42536032  0.97425002    -0.83400
C284        C  0.66015881  0.39973816  0.00039803     0.92000
O285        O  0.51115776  0.47750060  0.78166578    -0.83400
Mg286      Mg  0.49155664  0.32478452  0.83454472     1.58200
O287        O  0.67251576  0.44937139  0.88903679    -0.81800
O288        O  0.46063692  0.28651655  0.92960330    -0.83400
C289        C  0.45291712  0.33338945  0.65087464     0.79500
N290        N  0.45161535  0.33468900  0.69038441    -0.78800
C291        C  0.47628650  0.35739051  0.71036134     0.82000
N292        N  0.50309073  0.37847060  0.69034859    -0.78700
C293        C  0.50622138  0.37613223  0.65086779     0.82100
N294        N  0.47979614  0.35457325  0.63126561    -0.80400
C295        C  0.60655347  0.15121695  0.97643183     0.79500
N296        N  0.60561531  0.19057329  0.97859230    -0.78800
C297        C  0.58117961  0.21133651  0.95588866     0.82000
N298        N  0.55777582  0.19237135  0.93011749    -0.78700
C299        C  0.55941156  0.15301530  0.92606774     0.82100
N300        N  0.58303488  0.13272500  0.95065660    -0.80400
C301        C  0.78911490  0.47563961  0.82836093     0.79500
N302        N  0.80737790  0.44841019  0.85090275    -0.78800
C303        C  0.78665749  0.42342046  0.87316822     0.82000
N304        N  0.74751595  0.42847329  0.87481696    -0.78700
C305        C  0.72881516  0.45569692  0.85252194     0.82100
N306        N  0.74983052  0.47892888  0.82914067    -0.80400
O307        O  0.93211209  0.33599314  0.07279250    -0.89000
C308        C  0.95618960  0.45167952  0.05778448     0.87000
Mg309      Mg  0.92521632  0.30140500  0.02328793     1.58100
O310        O  0.86250693  0.43383351  0.09209535    -0.88800
O311        O  0.90120545  0.35859321  0.12357984    -0.76100
C312        C  0.80633918  0.40310802  0.90602123     0.92000
O313        O  0.98155193  0.37758107  0.00581908    -0.75900
O314        O  0.82686246  0.37200286  0.90255827    -0.83400
Mg315      Mg  0.98315119  0.37018201  0.07293169     1.58000
C316        C  0.77310776  0.47287687  0.04025757     0.92000
O317        O  0.98071264  0.35892023  0.14220151    -0.81700
H318        H  0.82620832  0.40572465  0.12728833    -0.07000
C319        C  0.87966074  0.44888743  0.97411438     0.86900
O320        O  0.85831452  0.30701198  0.03007113    -0.76200
O321        O  0.94560368  0.42189137  0.07485376    -0.89000
O322        O  0.79744849  0.48487470  0.06533638    -0.81800
C323        C  0.90725786  0.52229849  0.12803357     0.92100
C324        C  0.96953615  0.38500909  0.16611758     0.91900
Mg325      Mg  0.80979735  0.41125774  0.00299489     1.58000
O326        O  0.80204574  0.41927787  0.93867238    -0.81700
O327        O  0.81164198  0.40293471  0.07014051    -0.75900
O328        O  0.92162171  0.48902154  0.13441904    -0.81800
O329        O  0.02596321  0.31788403  0.06155886    -0.83500
O330        O  0.86347161  0.28623542  0.95101397    -0.81800
C331        C  0.83331316  0.41406625  0.09790309     0.86400
O332        O  0.83999787  0.35848491  0.99702603    -0.88900
O333        O  0.86215161  0.44161922  0.00470262    -0.89000
O334        O  0.88797435  0.42243771  0.94946879    -0.76100
Mg335      Mg  0.91230188  0.42516460  0.12569773     1.58000
O336        O  0.87918920  0.52714899  0.10403906    -0.83500
H337        H  0.90182709  0.30170077  0.10823842    -0.07200
O338        O  0.92639503  0.35125028  0.98803986    -0.88700
H339        H  0.96320727  0.37429696  0.94970862    -0.07000
H340        H  0.80238741  0.32517585  0.02560629    -0.07200
C341        C  0.95710131  0.36777405  0.97978980     0.86300
C342        C  0.91149841  0.33068863  0.10162796     0.86900
C343        C  0.83214332  0.33021007  0.01769843     0.87000
H344        H  0.88806711  0.47841974  0.96813358    -0.07200
O345        O  0.93209872  0.47776045  0.04693868    -0.76200
Mg346      Mg  0.87698205  0.35590705  0.94790004     1.58000
H347        H  0.98657086  0.45552794  0.05174619    -0.07200
C348        C  0.02154508  0.29436369  0.03315539     0.92000
O349        O  0.92190428  0.26954080  0.96835415    -0.83400
C350        C  0.88738960  0.26034334  0.96372036     0.92000
O351        O  0.96848360  0.41938542  0.15483686    -0.83400
Mg352      Mg  0.86573078  0.48263322  0.05400475     1.58200
O353        O  0.98882513  0.28970697  0.01744445    -0.81800
O354        O  0.78383173  0.46938665  0.00587213    -0.83400
C355        C  0.69525418  0.42875865  0.09894287     0.79500
N356        N  0.72680810  0.44957274  0.08866199    -0.78800
C357        C  0.73742494  0.45252185  0.05128393     0.82000
N358        N  0.71669926  0.43341692  0.02389097    -0.78700
C359        C  0.68524120  0.41178486  0.03327456     0.82100
N360        N  0.67364619  0.41031394  0.07121190    -0.80400
C361        C  0.92018250  0.33178396  0.24544239     0.79500
N362        N  0.94240735  0.33954452  0.21385590    -0.78800
C363        C  0.94772836  0.37624339  0.20193252     0.82000
N364        N  0.92974268  0.40543691  0.22148920    -0.78700
C365        C  0.90671766  0.39839461  0.25278900     0.82100
N366        N  0.90273520  0.36118823  0.26557824    -0.80400
C367        C  0.82621053  0.18217442  0.00446227     0.79500
N368        N  0.85263854  0.15924512  0.02374160    -0.78800
C369        C  0.89093163  0.16890372  0.02287910     0.82000
N370        N  0.90172854  0.20078224  0.00178596    -0.78700
C371        C  0.87536737  0.22334167  0.98230315     0.82100
N372        N  0.83783368  0.21390110  0.98427514    -0.80400
O373        O  0.46785166  0.03525098  0.87091955    -0.89000
C374        C  0.39666854  0.12432352  0.88583388     0.87000
Mg375      Mg  0.44920925  0.98834047  0.83529716     1.58100
O376        O  0.39921712  0.06232202  0.96718669    -0.88800
O377        O  0.48186478  0.04162541  0.93313205    -0.76100
C378        C  0.26459906  0.96415418  0.88393891     0.92000
O379        O  0.40551084  0.07345803  0.81369663    -0.75900
O380        O  0.28562478  0.94960078  0.85686765    -0.83400
Mg381      Mg  0.46108463  0.09227044  0.84567234     1.58000
C382        C  0.30012906  0.02663880  0.02271746     0.92000
O383        O  0.51893165  0.11858455  0.87801505    -0.81700
H384        H  0.43067459  0.03380963  0.00703983    -0.07000
C385        C  0.31092018  0.05240301  0.89483328     0.86900
O386        O  0.43129677  0.95282904  0.88861462    -0.76200
O387        O  0.42584549  0.10484672  0.89416578    -0.89000
O388        O  0.31677801  0.05963682  0.01756737    -0.81800
C389        C  0.38774977  0.16826477  0.97464716     0.92100
C390        C  0.52411593  0.13295491  0.91236116     0.91900
Mg391      Mg  0.33565446  0.98585096  0.94599206     1.58000
O392        O  0.27934770  0.97615326  0.91525387    -0.81700
O393        O  0.38957964  0.00084707  0.98140089    -0.75900
O394        O  0.41856578  0.15251635  0.96277959    -0.81800
O395        O  0.48955186  0.07664509  0.78593304    -0.83500
O396        O  0.37342979  0.92053158  0.81345209    -0.81800
C397        C  0.40700961  0.03282698  0.98651492     0.86400
O398        O  0.37007034  0.96875967  0.89757200    -0.88900
O399        O  0.32980891  0.04308322  0.92408531    -0.89000
O400        O  0.31358255  0.03394801  0.86299107    -0.76100
Mg401      Mg  0.44783595  0.09589391  0.95122743     1.58000
O402        O  0.36069755  0.14808462  0.98991481    -0.83500
H403        H  0.50671708  0.00142257  0.89802364    -0.07200
O404        O  0.39303891  0.01291579  0.82917464    -0.88700
H405        H  0.36074182  0.04308516  0.79129189    -0.07000
H406        H  0.39691942  0.92774321  0.92902073    -0.07200
C407        C  0.38555144  0.04278876  0.81044161     0.86300
C408        C  0.48677167  0.02559366  0.90016483     0.86900
C409        C  0.39889320  0.94851898  0.90557670     0.87000
H410        H  0.29229435  0.07767110  0.89610936    -0.07200
O411        O  0.36521616  0.12170290  0.90474385    -0.76200
Mg412      Mg  0.34411140  0.97837098  0.84149901     1.58000
H413        H  0.39766928  0.14353486  0.86101848    -0.07200
C414        C  0.47419176  0.05014839  0.76472684     0.92000
O415        O  0.43360650  0.93862307  0.79917155    -0.83400
C416        C  0.40635471  0.91461053  0.79687618     0.92000
O417        O  0.49931540  0.12946330  0.93884418    -0.83400
Mg418      Mg  0.34391878  0.09038819  0.95994130     1.58200
O419        O  0.46141120  0.01933410  0.77962740    -0.81800
O420        O  0.30134451  0.00012771  0.99749994    -0.83400
C421        C  0.44277382  0.10441945  0.67771336     0.79500
N422        N  0.46241112  0.09415541  0.71037350    -0.78800
C423        C  0.46192325  0.05756964  0.72389308     0.82000
N424        N  0.44073839  0.03066119  0.70405546    -0.78700
C425        C  0.42037637  0.04017614  0.67105740     0.82100
N426        N  0.42135812  0.07763415  0.65792141    -0.80400
C427        C  0.33698075  0.25838241  0.94549447     0.79500
N428        N  0.36416482  0.27692501  0.92353359    -0.78800
C429        C  0.40019679  0.26074547  0.91987676     0.82000
N430        N  0.40830455  0.22696007  0.93931198    -0.78700
C431        C  0.38124548  0.20873863  0.96145899     0.82100
N432        N  0.34573269  0.22458117  0.96389825    -0.80400
C433        C  0.17230828  0.98204236  0.83276632     0.79500
N434        N  0.15165722  0.00356005  0.85905092    -0.78800
C435        C  0.16749775  0.01120261  0.89468505     0.82000
N436        N  0.20320305  0.99601880  0.90346446    -0.78700
C437        C  0.22343613  0.97424995  0.87723795     0.82100
N438        N  0.20780984  0.96796052  0.84210253    -0.80400
O439        O  0.56960170  0.49742421  0.59247453    -0.89000
C440        C  0.55513806  0.47866723  0.47509317     0.87000
Mg441      Mg  0.51888773  0.50467116  0.62522765     1.58100
O442        O  0.59013993  0.57117676  0.49725065    -0.88800
O443        O  0.62038410  0.52881229  0.57128559    -0.76100
C444        C  0.40544325  0.62886983  0.52684782     0.92000
O445        O  0.50283245  0.45019541  0.54740914    -0.75900
O446        O  0.40091652  0.60609747  0.55600444    -0.83400
Mg447      Mg  0.56937978  0.44749131  0.55602612     1.58000
C448        C  0.54091687  0.66637023  0.46071308     0.92000
O449        O  0.63863662  0.44867247  0.56777643    -0.81700
H450        H  0.62582175  0.60601644  0.52654579    -0.07000
C451        C  0.47363829  0.55740717  0.47795482     0.86900
O452        O  0.52703786  0.57155357  0.62239437    -0.76200
O453        O  0.57244393  0.48709378  0.50554721    -0.89000
O454        O  0.56498720  0.64054604  0.44874914    -0.81800
C455        C  0.62691819  0.52836959  0.40690737     0.92100
C456        C  0.66315138  0.46061284  0.54263969     0.91900
Mg457      Mg  0.50241388  0.62551076  0.52061941     1.58000
O458        O  0.43853286  0.63431576  0.51236894    -0.81700
O459        O  0.56922583  0.62213538  0.52936861    -0.75900
O460        O  0.63232014  0.51256976  0.43973037    -0.81800
O461        O  0.55544904  0.40313108  0.60738885    -0.83500
O462        O  0.44654455  0.56765599  0.63948852    -0.81800
C463        C  0.59646210  0.59986124  0.51785574     0.86400
O464        O  0.49538012  0.59196640  0.57084544    -0.88900
O465        O  0.50369953  0.57481985  0.48677050    -0.89000
O466        O  0.44889187  0.54729200  0.50345664    -0.76100
Mg467      Mg  0.62319112  0.52020731  0.50414281     1.58000
O468        O  0.60399648  0.55760649  0.40300202    -0.83500
H469        H  0.60484228  0.52636058  0.62815258    -0.07200
O470        O  0.48584830  0.50577342  0.57393232    -0.88700
H471        H  0.44728755  0.46991742  0.54997259    -0.07000
H472        H  0.52335242  0.62820492  0.60628783    -0.07200
C473        C  0.47724957  0.47529341  0.55697814     0.86300
C474        C  0.59835524  0.51769875  0.59871544     0.86900
C475        C  0.51533750  0.59865917  0.59995646     0.87000
H476        H  0.46837213  0.55037469  0.44783123    -0.07200
O477        O  0.54530926  0.50443365  0.45012167    -0.76200
Mg478      Mg  0.44581306  0.55561090  0.57022930     1.58000
H479        H  0.54808902  0.44869526  0.46959670    -0.07200
C480        C  0.52613670  0.40793652  0.62982413     0.92000
O481        O  0.46245183  0.50825437  0.65365077    -0.83400
C482        C  0.45915660  0.54267961  0.66413092     0.92000
O483        O  0.65255851  0.46369888  0.50808060    -0.83400
Mg484      Mg  0.55346751  0.57127730  0.44742772     1.58200
O485        O  0.51120152  0.44109638  0.63461055    -0.81800
O486        O  0.50639204  0.65709473  0.46535665    -0.83400
C487        C  0.60325062  0.74343398  0.50109975     0.79500
N488        N  0.59101416  0.71222739  0.48061025    -0.78800
C489        C  0.55331651  0.70324173  0.47885977     0.82000
N490        N  0.52747346  0.72568522  0.49878452    -0.78700
C491        C  0.53900408  0.75701376  0.52013033     0.82100
N492        N  0.57737081  0.76620992  0.52089532    -0.80400
C493        C  0.50244314  0.60082083  0.74330831     0.79500
N494        N  0.52295686  0.57348136  0.76393837    -0.78800
C495        C  0.52301108  0.53583333  0.75150989     0.82000
N496        N  0.50089466  0.52635876  0.72002804    -0.78700
C497        C  0.47996458  0.55348780  0.70006957     0.82100
N498        N  0.48130777  0.59054298  0.71171844    -0.80400
C499        C  0.74151554  0.50561761  0.60061692     0.79500
N500        N  0.76299765  0.52381830  0.57262482    -0.78800
C501        C  0.75168634  0.52148848  0.53459347     0.82000
N502        N  0.72026798  0.49942634  0.52551261    -0.78700
C503        C  0.69935934  0.48080976  0.55328936     0.82100
N504        N  0.71000966  0.48449777  0.59066252    -0.80400
O505        O  0.35152930  0.92043208  0.61160793    -0.89000
C506        C  0.36167305  0.94163257  0.49446596     0.87000
Mg507      Mg  0.40328397  0.91045885  0.64229240     1.58100
O508        O  0.32682954  0.85027091  0.51568376    -0.88800
O509        O  0.29938405  0.89022013  0.59192631    -0.76100
C510        C  0.50842104  0.78162200  0.53895291     0.92000
O511        O  0.41754568  0.96533568  0.56477863    -0.75900
O512        O  0.51462560  0.80426423  0.56786352    -0.83400
Mg513      Mg  0.35133408  0.97104263  0.57633484     1.58000
C514        C  0.36866996  0.75247037  0.47277052     0.92000
O515        O  0.28152688  0.97217245  0.59082655    -0.81700
H516        H  0.29048475  0.81813303  0.54591405    -0.07000
C517        C  0.44194527  0.85868295  0.49220406     0.86900
O518        O  0.39231294  0.84416094  0.63806504    -0.76200
O519        O  0.34449212  0.93350562  0.52507293    -0.89000
O520        O  0.34572759  0.78018822  0.46257436    -0.81800
C521        C  0.28552247  0.89574591  0.42743692     0.92100
C522        C  0.25467402  0.96141897  0.56728575     0.91900
Mg523      Mg  0.41125300  0.79135002  0.53525836     1.58000
O524        O  0.47469700  0.77839950  0.52487127    -0.81700
O525        O  0.34559640  0.79745232  0.54608733    -0.75900
O526        O  0.28192831  0.91011062  0.46113332    -0.81800
O527        O  0.37001607  0.01397924  0.62771082    -0.93100
O528        O  0.47379957  0.84275803  0.65363427    -0.81800
C529        C  0.31953611  0.82169220  0.53590267     0.86400
O530        O  0.42138732  0.82425856  0.58502686    -0.88900
O531        O  0.41145471  0.84206017  0.50105226    -0.89000
O532        O  0.46763063  0.86716838  0.51753420    -0.76100
Mg533      Mg  0.29396178  0.90033516  0.52522647     1.58000
O534        O  0.30799884  0.86652869  0.42168131    -0.83500
H535        H  0.31726760  0.89147289  0.64819768    -0.07200
O536        O  0.43494751  0.90902102  0.59017242    -0.88700
H537        H  0.47262779  0.94409012  0.56379022    -0.07000
H538        H  0.39358009  0.78813623  0.62006659    -0.07200
C539        C  0.44308044  0.93941893  0.57267021     0.86300
C540        C  0.32266184  0.90058995  0.61865169     0.86900
C541        C  0.40228986  0.81742579  0.61454646     0.87000
H542        H  0.44679847  0.86644812  0.46218428    -0.07200
O543        O  0.37034027  0.91591415  0.46911226    -0.76200
Mg544      Mg  0.47268234  0.85710333  0.58421583     1.58000
H545        H  0.36980962  0.97136907  0.48922023    -0.07200
C546        C  0.40020060  0.00845170  0.64908484     0.92000
O547        O  0.45931466  0.90212343  0.66980146    -0.83400
C548        C  0.46346230  0.86738079  0.67950317     0.92000
O549        O  0.26310431  0.95492514  0.53257652    -0.83400
Mg550      Mg  0.35996950  0.84943419  0.46405051     1.58200
O551        O  0.41457878  0.97467481  0.65296648    -0.81800
O552        O  0.40300969  0.75980662  0.48147266    -0.83400
C553        C  0.33034067  0.65413398  0.45416094     0.79500
N554        N  0.33386418  0.69347131  0.45312118    -0.78800
C555        C  0.35730179  0.71163270  0.47851549     0.82000
N556        N  0.37744128  0.69005793  0.50511166    -0.78700
C557        C  0.37362829  0.65090497  0.50763223     0.82100
N558        N  0.35086158  0.63291060  0.48093320    -0.80400
C559        C  0.15702754  0.96564376  0.61249922     0.79500
N560        N  0.13706771  0.94044370  0.58937217    -0.78800
C561        C  0.15565233  0.91966363  0.56142122     0.82000
N562        N  0.19399406  0.92660595  0.55551481    -0.78700
C563        C  0.21443706  0.95143911  0.57854936     0.82100
N564        N  0.19571985  0.97067059  0.60703229    -0.80400
C565        C  0.46312281  0.82721934  0.77944196     0.79500
N566        N  0.46937462  0.83004891  0.74048243    -0.78800
C567        C  0.45055167  0.85732124  0.71926234     0.82000
N568        N  0.42530922  0.88195587  0.73747880    -0.78700
C569        C  0.41742985  0.87875218  0.77610515     0.82100
N570        N  0.43758042  0.85185453  0.79693292    -0.80400
C571        C  0.18737289  0.27341279  0.64500131     0.79500
N572        N  0.16684948  0.24052617  0.63863388    -0.78800
C573        C  0.13782648  0.23027837  0.66311656     0.82000
N574        N  0.13013024  0.25272462  0.69449792    -0.78700
C575        C  0.15055457  0.28540855  0.70135241     0.82100
N576        N  0.17939105  0.29534979  0.67675771    -0.80400
C577        C  0.14390770  0.05303965  0.67481253    -0.11500
C578        C  0.11020545  0.06881081  0.65831937     0.05600
C579        C  0.08704801  0.04557696  0.63447595    -0.10300
C580        C  0.09967051  0.00839595  0.62397333    -0.11900
C581        C  0.13631733  0.99494857  0.63593344    -0.01700
C582        C  0.15715505  0.01667621  0.66324212    -0.10800
C583        C  0.10540935  0.11126980  0.65870118     0.05600
H584        H  0.06096508  0.05740188  0.62144514     0.07600
H585        H  0.08298233  0.99241239  0.60281447     0.11000
H586        H  0.18579691  0.00768671  0.67225908     0.11300
H587        H  0.16240064  0.07067230  0.69294242     0.07600
C588        C  0.10440649  0.13131156  0.69401150    -0.11500
C589        C  0.11147969  0.17110602  0.69489757    -0.10800
C590        C  0.12086548  0.19118965  0.66059349    -0.01700
C591        C  0.11919229  0.17158739  0.62497357    -0.11900
C592        C  0.11107335  0.13196752  0.62401101    -0.10300
H593        H  0.10071044  0.11570378  0.72107357     0.07600
H594        H  0.11279315  0.18538991  0.72284085     0.11300
H595        H  0.12625431  0.18639687  0.59817001     0.11000
H596        H  0.11264999  0.11682179  0.59652036     0.07600
C597        C  0.36336135  0.32724998  0.58921425    -0.11500
C598        C  0.34407786  0.29661956  0.60767310     0.05600
C599        C  0.36415750  0.27399723  0.63517121    -0.10300
C600        C  0.40141317  0.28399440  0.64668703    -0.11900
C601        C  0.41973547  0.31622814  0.63037310    -0.01700
C602        C  0.40120724  0.33667796  0.60013915    -0.10800
C603        C  0.30164261  0.29225328  0.60441559     0.05600
H604        H  0.34979551  0.25065811  0.65035251     0.07600
H605        H  0.41480991  0.26832909  0.67043318     0.11000
H606        H  0.41448292  0.36209020  0.58752694     0.11300
H607        H  0.34835298  0.34522073  0.56809997     0.07600
C608        C  0.27751490  0.32412686  0.61262139    -0.11500
C609        C  0.23877481  0.31842649  0.62234615    -0.10800
C610        C  0.22342173  0.28085555  0.62339403    -0.01700
C611        C  0.24633838  0.24960833  0.61059619    -0.11900
C612        C  0.28528502  0.25522606  0.60155759    -0.10300
H613        H  0.28945476  0.35293735  0.61528095     0.07600
H614        H  0.22162973  0.34302696  0.63187683     0.11300
H615        H  0.23531474  0.22031554  0.61118772     0.11000
H616        H  0.30335252  0.23024915  0.59522455     0.07600
C617        C  0.11441039  0.33989904  0.88310991    -0.11500
C618        C  0.14241239  0.31957760  0.86167294     0.05600
C619        C  0.16339243  0.28949130  0.87960589    -0.10300
C620        C  0.15289096  0.27650632  0.91640067    -0.11900
C621        C  0.12248779  0.29434247  0.93650772    -0.01700
C622        C  0.10496401  0.32776318  0.92066936    -0.10800
C623        C  0.14320549  0.32232702  0.81894273     0.05600
H624        H  0.18464571  0.27296450  0.86339555     0.07600
H625        H  0.16554891  0.24998419  0.92734306     0.11000
H626        H  0.08090903  0.34172257  0.93525455     0.11300
H627        H  0.09769568  0.36297401  0.86961205     0.07600
C628        C  0.10937094  0.31380822  0.79811020    -0.11500
C629        C  0.11126443  0.30452901  0.75874392    -0.10800
C630        C  0.14688403  0.30449684  0.73940306    -0.01700
C631        C  0.18017797  0.31654791  0.75938902    -0.11900
C632        C  0.17843377  0.32489372  0.79906885    -0.10300
H633        H  0.08200520  0.31093472  0.81302866     0.07600
H634        H  0.08528999  0.29514274  0.74397202     0.11300
H635        H  0.20809643  0.31627305  0.74522590     0.11000
H636        H  0.20489272  0.33089050  0.81476624     0.07600
C637        C  0.21867297  0.75419756  0.50191352    -0.11500
C638        C  0.23073079  0.71776998  0.48817767     0.05600
C639        C  0.25814557  0.69649269  0.50978028    -0.10300
C640        C  0.27309194  0.71137062  0.54455584    -0.11900
C641        C  0.25930551  0.74687936  0.55924580    -0.01700
C642        C  0.23221437  0.76821774  0.53725002    -0.10800
C643        C  0.20927515  0.70030098  0.45535706     0.05600
H644        H  0.26699780  0.66788362  0.50040143     0.07600
H645        H  0.29393882  0.69423902  0.56083363     0.11000
H646        H  0.22105497  0.79575298  0.54755703     0.11300
H647        H  0.19677945  0.77086917  0.48652798     0.07600
C648        C  0.19086553  0.66453297  0.46070634    -0.11500
C649        C  0.15738677  0.65605184  0.43955637    -0.10800
C650        C  0.14209948  0.68358171  0.41356369    -0.01700
C651        C  0.16550193  0.71458944  0.40199815    -0.11900
C652        C  0.19872327  0.72332051  0.42325268    -0.10300
H653        H  0.19873582  0.64594916  0.48490584     0.07600
H654        H  0.13989820  0.63183621  0.44884223     0.11300
H655        H  0.15436405  0.73610657  0.38178952     0.11000
H656        H  0.21311839  0.75058312  0.41786993     0.07600
C657        C  0.21236237  0.85729463  0.73369933    -0.11500
C658        C  0.18853196  0.88363216  0.71362281     0.05600
C659        C  0.18689746  0.88222146  0.67296259    -0.10300
C660        C  0.20924734  0.85504721  0.65256411    -0.11900
C661        C  0.23411307  0.82949237  0.67269736    -0.01700
C662        C  0.23512600  0.83067173  0.71346152    -0.10800
C663        C  0.17021567  0.91553517  0.73548957     0.05600
H664        H  0.16875235  0.90241572  0.65718420     0.07600
H665        H  0.20794750  0.85478591  0.62112004     0.11000
H666        H  0.25375400  0.81115028  0.72976646     0.11300
H667        H  0.21450192  0.85840684  0.76508369     0.07600
C668        C  0.14347504  0.90759409  0.76497112    -0.11500
C669        C  0.13663550  0.93480791  0.79435388    -0.10800
C670        C  0.15724511  0.96969755  0.79498212    -0.01700
C671        C  0.17952968  0.97968034  0.76243343    -0.11900
C672        C  0.18649301  0.95247582  0.73322244    -0.10300
H673        H  0.13106271  0.87896848  0.76746500     0.07600
H674        H  0.12013627  0.92601871  0.81953429     0.11300
H675        H  0.19660485  0.00588809  0.76276082     0.11000
H676        H  0.20831074  0.95846494  0.71158415     0.07600
C677        C  0.39587825  0.75110637  0.72534461    -0.11500
C678        C  0.41772115  0.72074814  0.70949446     0.05600
C679        C  0.40656725  0.70476059  0.67370641    -0.10300
C680        C  0.37337057  0.71810882  0.65453200    -0.11900
C681        C  0.35088289  0.74810184  0.67059727    -0.01700
C682        C  0.36298086  0.76495405  0.70587314    -0.10800
C683        C  0.44939062  0.70207516  0.73162870     0.05600
H684        H  0.42281899  0.68083381  0.66131703     0.07600
H685        H  0.36511815  0.70463842  0.62740224     0.11000
H686        H  0.34667843  0.78847975  0.71886762     0.11300
H687        H  0.40394969  0.76361431  0.75299627     0.07600
C688        C  0.48596514  0.69785665  0.71466677    -0.11500
C689        C  0.51098463  0.66840512  0.72729860    -0.10800
C690        C  0.49843286  0.64140078  0.75503166    -0.01700
C691        C  0.46535547  0.65035877  0.77694384    -0.11900
C692        C  0.44066307  0.68052287  0.76505383    -0.10300
H693        H  0.49338870  0.71452021  0.68908618     0.07600
H694        H  0.53642932  0.66214823  0.71005518     0.11300
H695        H  0.45494232  0.62992872  0.79838090     0.11000
H696        H  0.41257262  0.68344524  0.77862696     0.07600
C697        C  0.52086578  0.22474195  0.74898075    -0.11500
C698        C  0.51199377  0.23634051  0.71083200     0.05600
C699        C  0.53430315  0.26526304  0.69323809    -0.10300
C700        C  0.56560968  0.28152309  0.71326145    -0.11900
C701        C  0.57580173  0.26819053  0.75069090    -0.01700
C702        C  0.55258637  0.24010699  0.76848509    -0.10800
C703        C  0.48356953  0.21336967  0.68855497     0.05600
H704        H  0.52811696  0.27445996  0.66375900     0.07600
H705        H  0.58274500  0.30335326  0.69881475     0.11000
H706        H  0.55947377  0.22909230  0.79715440     0.11300
H707        H  0.50455614  0.20194995  0.76294821     0.07600
C708        C  0.49622797  0.19162764  0.65649945    -0.11500
C709        C  0.47678867  0.15772983  0.64594969    -0.10800
C710        C  0.44447451  0.14559904  0.66719628    -0.01700
C711        C  0.42782954  0.17140875  0.69397854    -0.11900
C712        C  0.44767773  0.20468767  0.70521997    -0.10300
H713        H  0.52392782  0.19764705  0.64328280     0.07600
H714        H  0.49053113  0.13807722  0.62563764     0.11300
H715        H  0.40318143  0.16248455  0.71108219     0.11000
H716        H  0.43724571  0.22115011  0.72987094     0.07600
C717        C  0.67423198  0.19842469  0.89839573    -0.11500
C718        C  0.70262457  0.21586740  0.92154398     0.05600
C719        C  0.71557353  0.25309421  0.91167887    -0.10300
C720        C  0.70108060  0.27233539  0.87903727    -0.11900
C721        C  0.67250911  0.25527140  0.85578079    -0.01700
C722        C  0.65886442  0.21821437  0.86609809    -0.10800
C723        C  0.72241098  0.19479158  0.95355700     0.05600
H724        H  0.73815154  0.26680076  0.92851621     0.07600
H725        H  0.71268183  0.30050387  0.87188597     0.11000
H726        H  0.63690568  0.20416084  0.84877431     0.11300
H727        H  0.66415187  0.16955768  0.90520789     0.07600
C728        C  0.72872062  0.21372043  0.98903317    -0.11500
C729        C  0.75932733  0.20227439  0.01310127    -0.10800
C730        C  0.78502051  0.17299733  0.00102402    -0.01700
C731        C  0.77436504  0.14960203  0.96948771    -0.11900
C732        C  0.74318208  0.16056343  0.94565784    -0.10300
H733        H  0.71268834  0.23989436  0.99599803     0.07600
H734        H  0.76697346  0.22083160  0.03724057     0.11300
H735        H  0.79387686  0.12708878  0.95938114     0.11000
H736        H  0.73882875  0.14543598  0.91848296     0.07600
C737        C  0.67784856  0.42141890  0.72083515    -0.11500
C738        C  0.71559560  0.43121134  0.73188919     0.05600
C739        C  0.73491825  0.40808875  0.75953431    -0.10300
C740        C  0.71679822  0.37535180  0.77534030    -0.11900
C741        C  0.67969043  0.36445702  0.76257433    -0.01700
C742        C  0.66038583  0.38824460  0.73546936    -0.10800
C743        C  0.73564942  0.46159689  0.70930742     0.05600
H744        H  0.76422551  0.41484085  0.76812978     0.07600
H745        H  0.73240905  0.35778655  0.79635588     0.11000
H746        H  0.63205738  0.38079727  0.72457809     0.11300
H747        H  0.66261847  0.43820472  0.69888708     0.07600
C748        C  0.76778767  0.45125215  0.68663791    -0.11500
C749        C  0.77632495  0.47233537  0.65294089    -0.10800
C750        C  0.75268868  0.50371746  0.64170483    -0.01700
C751        C  0.72557828  0.51822062  0.66836004    -0.11900
C752        C  0.71678886  0.49705860  0.70181727    -0.10300
H753        H  0.78276105  0.42401210  0.69178392     0.07600
H754        H  0.79698644  0.46023393  0.63262127     0.11300
H755        H  0.70670002  0.54210658  0.66014911     0.11000
H756        H  0.69212746  0.50581035  0.71912500     0.07600
C757        C  0.61704815  0.08427226  0.06227496    -0.11500
C758        C  0.64536368  0.10381642  0.08380497     0.05600
C759        C  0.66588838  0.13399383  0.06611605    -0.10300
C760        C  0.65560975  0.14702870  0.02915109    -0.11900
C761        C  0.62519149  0.12970540  0.00871295    -0.01700
C762        C  0.60739864  0.09678999  0.02468533    -0.10800
C763        C  0.64835934  0.09920711  0.12641482     0.05600
H764        H  0.68737498  0.15000600  0.08231145     0.07600
H765        H  0.66925858  0.17274004  0.01789847     0.11000
H766        H  0.58350572  0.08311017  0.00982232     0.11300
H767        H  0.60069983  0.06109543  0.07549573     0.07600
C768        C  0.61546521  0.10625158  0.14924884    -0.11500
C769        C  0.61946291  0.11644887  0.18829954    -0.10800
C770        C  0.65633510  0.11894301  0.20519547    -0.01700
C771        C  0.68871341  0.10681647  0.18369553    -0.11900
C772        C  0.68478861  0.09744918  0.14441804    -0.10300
H773        H  0.58708460  0.10802426  0.13595966     0.07600
H774        H  0.59405581  0.12540114  0.20438400     0.11300
H775        H  0.71750850  0.10848559  0.19597581     0.11000
H776        H  0.71051670  0.09212395  0.12731186     0.07600
C777        C  0.80042132  0.12072650  0.32128651    -0.11500
C778        C  0.82116122  0.15480016  0.32836189     0.05600
C779        C  0.80134496  0.19040548  0.32958795    -0.10300
C780        C  0.76169138  0.19211797  0.32142659    -0.11900
C781        C  0.74170446  0.15837598  0.31068680    -0.01700
C782        C  0.76111951  0.12251856  0.31219519    -0.10800
C783        C  0.86361578  0.15329851  0.32500479     0.05600
H784        H  0.81701717  0.21704496  0.33438205     0.07600
H785        H  0.74753234  0.22021130  0.32029148     0.11000
H786        H  0.74645361  0.09610177  0.30407771     0.11300
H787        H  0.81535197  0.09306279  0.31943003     0.07600
C788        C  0.88566743  0.12832854  0.34870855    -0.11500
C789        C  0.92252791  0.11611972  0.33688439    -0.10800
C790        C  0.93693032  0.12772124  0.30056501    -0.01700
C791        C  0.91630562  0.15565686  0.27906833    -0.11900
C792        C  0.88029741  0.16891343  0.29147518    -0.10300
H793        H  0.87303836  0.11570176  0.37450672     0.07600
H794        H  0.93753166  0.09423485  0.35390547     0.11300
H795        H  0.92605705  0.16385901  0.25048823     0.11000
H796        H  0.86354313  0.18762978  0.27238280     0.07600
C797        C  0.63473686  0.37824395  0.25922803    -0.11500
C798        C  0.60640473  0.35829759  0.28026146     0.05600
C799        C  0.58478063  0.37839929  0.30831985    -0.10300
C800        C  0.59465496  0.41627354  0.31856685    -0.11900
C801        C  0.62687035  0.43399739  0.30150813    -0.01700
C802        C  0.64510326  0.41570853  0.27004308    -0.10800
C803        C  0.60657790  0.31543628  0.27946129     0.05600
H804        H  0.56269226  0.36357990  0.32475681     0.07600
H805        H  0.58015341  0.42960931  0.34303202     0.11000
H806        H  0.67010982  0.42863824  0.25673805     0.11300
H807        H  0.65200481  0.36335743  0.23759583     0.07600
C808        C  0.60730404  0.29527968  0.24410770    -0.11500
C809        C  0.61742382  0.25594107  0.24333416    -0.10800
C810        C  0.62801104  0.23656765  0.27778977    -0.01700
C811        C  0.62480844  0.25605730  0.31331344    -0.11900
C812        C  0.61372745  0.29504392  0.31418516    -0.10300
H813        H  0.60222618  0.31050058  0.21699095     0.07600
H814        H  0.62002644  0.24158841  0.21550580     0.11300
H815        H  0.63289682  0.24170192  0.34018619     0.11000
H816        H  0.61396932  0.31007321  0.34177319     0.07600
C817        C  0.23656282  0.23877913  0.95751987    -0.11500
C818        C  0.23123923  0.25529563  0.99436674     0.05600
C819        C  0.25603157  0.28513213  0.00621154    -0.10300
C820        C  0.28913251  0.29350170  0.98441080    -0.11900
C821        C  0.29727756  0.27246680  0.95047599    -0.01700
C822        C  0.26864366  0.24833390  0.93514878    -0.10800
C823        C  0.20710560  0.23498326  0.02342102     0.05600
H824        H  0.25280853  0.29812082  0.03463892     0.07600
H825        H  0.31110854  0.31173544  0.99718200     0.11000
H826        H  0.27455613  0.23131442  0.90938814     0.11300
H827        H  0.21838723  0.21521741  0.94795304     0.07600
C828        C  0.18261931  0.25510396  0.04903500    -0.11500
C829        C  0.16409974  0.23528728  0.07932406    -0.10800
C830        C  0.17081447  0.19534344  0.08508757    -0.01700
C831        C  0.19495832  0.17543722  0.05913225    -0.11900
C832        C  0.21240294  0.19485749  0.02843241    -0.10300
H833        H  0.17836332  0.28610289  0.04595806     0.07600
H834        H  0.14576041  0.25143188  0.09905771     0.11300
H835        H  0.20099789  0.14480359  0.06290700     0.11000
H836        H  0.23177621  0.17871249  0.00970067     0.07600
C837        C  0.17876185  0.03294825  0.22389836    -0.11500
C838        C  0.21526440  0.02146186  0.21020630     0.05600
C839        C  0.23274132  0.04292135  0.18050589    -0.10300
C840        C  0.21375946  0.07537614  0.16462663    -0.11900
C841        C  0.17747829  0.08740395  0.17896746    -0.01700
C842        C  0.16028284  0.06573256  0.20881112    -0.10800
C843        C  0.23563814  0.98920921  0.23005833     0.05600
H844        H  0.26104154  0.03467384  0.16982158     0.07600
H845        H  0.22782114  0.09142332  0.14166641     0.11000
H846        H  0.13239320  0.07398215  0.22053094     0.11300
H847        H  0.16503718  0.01716576  0.24728784     0.07600
C848        C  0.26997140  0.99628184  0.25061108    -0.11500
C849        C  0.28126992  0.97143310  0.28092709    -0.10800
C850        C  0.25814905  0.93963611  0.29081028    -0.01700
C851        C  0.22869129  0.92858220  0.26505002    -0.11900
C852        C  0.21660028  0.95389430  0.23567953    -0.10300
H853        H  0.28510455  0.02337874  0.24669708     0.07600
H854        H  0.30390630  0.98076061  0.30051545     0.11300
H855        H  0.21037280  0.90423844  0.27214762     0.11000
H856        H  0.19029576  0.94766623  0.21980888     0.07600
C857        C  0.02584743  0.18219990  0.24072144    -0.11500
C858        C  0.00364165  0.21119160  0.22257755     0.05600
C859        C  0.01516094  0.22561857  0.18629339    -0.10300
C860        C  0.04861491  0.21176165  0.16853188    -0.11900
C861        C  0.07107984  0.18270115  0.18642631    -0.01700
C862        C  0.05905414  0.16761089  0.22248960    -0.10800
C863        C  0.97055465  0.22987629  0.24208797     0.05600
H864        H  0.99879732  0.24861680  0.17218876     0.07600
H865        H  0.05686511  0.22391295  0.14076536     0.11000
H866        H  0.07572514  0.14514358  0.23701967     0.11300
H867        H  0.01766433  0.17117626  0.26896716     0.07600
C868        C  0.93554332  0.23428719  0.22183331    -0.11500
C869        C  0.91008933  0.26422051  0.23150225    -0.10800
C870        C  0.92120558  0.29172184  0.25919976    -0.01700
C871        C  0.95171038  0.28247647  0.28467555    -0.11900
C872        C  0.97674029  0.25166951  0.27585925    -0.10300
H873        H  0.92999745  0.21733600  0.19598982     0.07600
H874        H  0.88632138  0.27055653  0.21186016     0.11300
H875        H  0.96064147  0.30319361  0.30647569     0.11000
H876        H  0.00352070  0.24858200  0.29199850     0.07600
C877        C  0.66724694  0.48785134  0.17986882    -0.11500
C878        C  0.70054823  0.48112135  0.20236864     0.05600
C879        C  0.72091535  0.44608617  0.19776880    -0.10300
C880        C  0.71193730  0.42133459  0.16707721    -0.11900
C881        C  0.68370043  0.43228384  0.13971198    -0.01700
C882        C  0.65870214  0.46327260  0.14867772    -0.10800
C883        C  0.71944948  0.51377770  0.22245467     0.05600
H884        H  0.74643723  0.44009605  0.21515366     0.07600
H885        H  0.73169426  0.39765963  0.16072961     0.11000
H886        H  0.63691866  0.47248103  0.12787106     0.11300
H887        H  0.65104707  0.51466044  0.18298645     0.07600
C888        C  0.75633334  0.52502259  0.21006308    -0.11500
C889        C  0.77409362  0.55755355  0.22572975    -0.10800
C890        C  0.75571220  0.57940030  0.25476652    -0.01700
C891        C  0.71878418  0.56796072  0.26752051    -0.11900
C892        C  0.70056274  0.53565252  0.25109675    -0.10300
H893        H  0.77108960  0.50907758  0.18734667     0.07600
H894        H  0.80234425  0.56548714  0.21500495     0.11300
H895        H  0.70379011  0.58420190  0.28983425     0.11000
H896        H  0.67191399  0.52770043  0.26071387     0.07600
C897        C  0.91185727  0.67062990  0.20198845    -0.11500
C898        C  0.93447510  0.69775191  0.22190714     0.05600
C899        C  0.92246025  0.71034028  0.25877450    -0.10300
C900        C  0.88786464  0.69738868  0.27474162    -0.11900
C901        C  0.86492192  0.67045082  0.25486432    -0.01700
C902        C  0.87776195  0.65657156  0.21860844    -0.10800
C903        C  0.96695043  0.71799583  0.20275004     0.05600
H904        H  0.93874171  0.73206226  0.27437593     0.07600
H905        H  0.87879274  0.70924584  0.30234493     0.11000
H906        H  0.86088400  0.63572942  0.20248935     0.11300
H907        H  0.92013774  0.66098836  0.17327648     0.07600
C908        C  0.00049302  0.72661218  0.22400502    -0.11500
C909        C  0.02314948  0.75826476  0.21343621    -0.10800
C910        C  0.01165221  0.78229174  0.18239903    -0.01700
C911        C  0.98316600  0.76886671  0.15677259    -0.11900
C912        C  0.96067869  0.73684636  0.16701791    -0.10300
H913        H  0.00646113  0.71191570  0.25124084     0.07600
H914        H  0.04511464  0.76799136  0.23361022     0.11300
H915        H  0.97372522  0.78688998  0.13268568     0.11000
H916        H  0.93526775  0.73047156  0.14981706     0.07600
C917        C  0.70235950  0.71259022  0.48928808    -0.11500
C918        C  0.71036049  0.73279837  0.45485906     0.05600
C919        C  0.68915566  0.76659920  0.44615945    -0.10300
C920        C  0.65630618  0.77611714  0.46794897    -0.11900
C921        C  0.64459348  0.75185151  0.49843193    -0.01700
C922        C  0.66990150  0.72245339  0.51128356    -0.10800
C923        C  0.73219460  0.71321020  0.42365565     0.05600
H924        H  0.69478132  0.78249620  0.41962816     0.07600
H925        H  0.63691832  0.79848900  0.45709327     0.11000
H926        H  0.66117285  0.70304457  0.53439365     0.11300
H927        H  0.71848367  0.68650104  0.49657320     0.07600
C928        C  0.76307716  0.73107036  0.40451804    -0.11500
C929        C  0.77977066  0.71357438  0.37177237    -0.10800
C930        C  0.76474274  0.67875209  0.35687186    -0.01700
C931        C  0.73396401  0.66104221  0.37647018    -0.11900
C932        C  0.71828488  0.67778835  0.40968804    -0.10300
H933        H  0.77369575  0.75876366  0.41445746     0.07600
H934        H  0.80354760  0.72792737  0.35744479     0.11300
H935        H  0.72141124  0.63442709  0.36586044     0.11000
H936        H  0.69388378  0.66392872  0.42350009     0.07600
C937        C  0.29851033  0.88298313  0.17284826    -0.11500
C938        C  0.32492473  0.86253971  0.14957950     0.05600
C939        C  0.34502877  0.88256199  0.12048100    -0.10300
C940        C  0.33497146  0.92088440  0.11137358    -0.11900
C941        C  0.30401098  0.93911253  0.13062068    -0.01700
C942        C  0.28782410  0.92086610  0.16307429    -0.10800
C943        C  0.32370767  0.81968276  0.14942663     0.05600
H944        H  0.36572752  0.86740552  0.10237062     0.07600
H945        H  0.34791940  0.93417816  0.08606640     0.11000
H946        H  0.26376308  0.93413216  0.17786630     0.11300
H947        H  0.28251117  0.86821826  0.19541366     0.07600
C948        C  0.32481638  0.79852424  0.18425917    -0.11500
C949        C  0.31476266  0.75932657  0.18463283    -0.10800
C950        C  0.30250940  0.74092824  0.15032315    -0.01700
C951        C  0.30326549  0.76162502  0.11524069    -0.11900
C952        C  0.31415057  0.80051834  0.11474055    -0.10300
H953        H  0.33168519  0.81279390  0.21138055     0.07600
H954        H  0.31419087  0.74416046  0.21220003     0.11300
H955        H  0.29397346  0.74816614  0.08843539     0.11000
H956        H  0.31234744  0.81637862  0.08759608     0.07600
C957        C  0.13940194  0.68004590  0.08527603    -0.11500
C958        C  0.12122817  0.64418510  0.09024145     0.05600
C959        C  0.14350769  0.61165528  0.10086735    -0.10300
C960        C  0.18228837  0.61589012  0.11112735    -0.11900
C961        C  0.19948887  0.65264014  0.11037576    -0.01700
C962        C  0.17848496  0.68415840  0.09479156    -0.10800
C963        C  0.07895159  0.64222676  0.09490595     0.05600
H964        H  0.12994775  0.58378235  0.10525936     0.07600
H965        H  0.19788791  0.59100946  0.12260067     0.11000
H966        H  0.19099862  0.71280913  0.09365335     0.11300
H967        H  0.12259017  0.70547826  0.07726916     0.07600
C968        C  0.06206083  0.66306109  0.12552818    -0.11500
C969        C  0.02624882  0.65215504  0.14018495    -0.10800
C970        C  0.00626304  0.62100701  0.12377565    -0.01700
C971        C  0.02098738  0.60333716  0.09005914    -0.11900
C972        C  0.05748788  0.61346073  0.07609013    -0.10300
H973        H  0.07836395  0.68496504  0.14084913     0.07600
H974        H  0.01576481  0.66586476  0.16633822     0.11300
H975        H  0.00630085  0.57899786  0.07697497     0.11000
H976        H  0.07022152  0.59684904  0.05265907     0.07600
C977        C  0.27114694  0.64389761  0.36334208    -0.11500
C978        C  0.28815993  0.61096464  0.34656205     0.05600
C979        C  0.31397251  0.58825643  0.36864770    -0.10300
C980        C  0.32468553  0.59996822  0.40609289    -0.11900
C981        C  0.31063900  0.63518740  0.42122132    -0.01700
C982        C  0.28270435  0.65616641  0.40005170    -0.10800
C983        C  0.28525383  0.60629164  0.30409426     0.05600
H984        H  0.32769453  0.56297856  0.35595344     0.07600
H985        H  0.34660152  0.58343140  0.42154968     0.11000
H986        H  0.27209549  0.68375327  0.41054730     0.11300
H987        H  0.25173858  0.66225302  0.34656004     0.07600
C988        C  0.24896410  0.60515683  0.28583156    -0.11500
C989        C  0.24561169  0.61324470  0.24613250    -0.10800
C990        C  0.27839403  0.62374306  0.22463245    -0.01700
C991        C  0.31497598  0.62149990  0.24218936    -0.11900
C992        C  0.31842269  0.61236958  0.28156716    -0.10300
H993        H  0.22303317  0.60096716  0.30285176     0.07600
H994        H  0.21703841  0.61515232  0.23328695     0.11300
H995        H  0.34058320  0.62960065  0.22614572     0.11000
H996        H  0.34661712  0.61394583  0.29522119     0.07600
C997        C  0.81574035  0.82528171  0.63929872    -0.11500
C998        C  0.78331631  0.83453121  0.61632119     0.05600
C999        C  0.74677733  0.83681410  0.63382761    -0.10300
C1000       C  0.74235649  0.82701045  0.67298807    -0.11900
C1001       C  0.77432756  0.81400661  0.69487295    -0.01700
C1002       C  0.81123148  0.81476598  0.67814488    -0.10800
C1003       C  0.78702732  0.83283219  0.57363784     0.05600
H1004       H  0.72138241  0.84366081  0.61656922     0.07600
H1005       H  0.71352998  0.82656167  0.68515681     0.11000
H1006       H  0.83632257  0.80502818  0.69446619     0.11300
H1007       H  0.84415713  0.82274593  0.62637173     0.07600
C1008       C  0.81808252  0.85088405  0.55484851    -0.11500
C1009       C  0.82956669  0.83855449  0.51795680    -0.10800
C1010       C  0.81059202  0.80747671  0.50000654    -0.01700
C1011       C  0.77699456  0.79266514  0.51688575    -0.11900
C1012       C  0.76498658  0.80554572  0.55324857    -0.10300
H1013       H  0.83545036  0.87199770  0.57008419     0.07600
H1014       H  0.85580438  0.85024329  0.50563694     0.11300
H1015       H  0.76226125  0.76851522  0.50370093     0.11000
H1016       H  0.74115003  0.79090045  0.56719412     0.07600
C1017       C  0.84778874  0.56593826  0.82480551    -0.11500
C1018       C  0.83107074  0.58446357  0.79240902     0.05600
C1019       C  0.80796881  0.56281452  0.76696386    -0.10300
C1020       C  0.79760344  0.52496465  0.77652762    -0.11900
C1021       C  0.81092276  0.50785440  0.81107937    -0.01700
C1022       C  0.83810795  0.52764747  0.83385300    -0.10800
C1023       C  0.82953069  0.62727404  0.78993650     0.05600
H1024       H  0.79442100  0.57648625  0.74199238     0.07600
H1025       H  0.77643473  0.51035077  0.75880785     0.11000
H1026       H  0.84844334  0.51522675  0.86091711     0.11300
H1027       H  0.86565264  0.58211698  0.84482889     0.07600
C1028       C  0.81516307  0.64825636  0.82177443    -0.11500
C1029       C  0.80260265  0.68653455  0.81714672    -0.10800
C1030       C  0.80475621  0.70477643  0.78074539    -0.01700
C1031       C  0.82264849  0.68503011  0.74982755    -0.11900
C1032       C  0.83454539  0.64639301  0.75428603    -0.10300
H1033       H  0.81051722  0.63404854  0.84944138     0.07600
H1034       H  0.78917036  0.70111619  0.84152004     0.11300
H1035       H  0.82469715  0.69833927  0.72139791     0.11000
H1036       H  0.84542276  0.63071379  0.72932462     0.07600
C1037       C  0.55057144  0.76720842  0.80038986    -0.11500
C1038       C  0.57001480  0.79213744  0.82592634     0.05600
C1039       C  0.54945400  0.82251093  0.84359201    -0.10300
C1040       C  0.51128457  0.83038928  0.83259652    -0.11900
C1041       C  0.49372958  0.80869145  0.80292983    -0.01700
C1042       C  0.51279727  0.77571679  0.78866677    -0.10800
C1043       C  0.61269121  0.79143463  0.82663164     0.05600
H1044       H  0.56394092  0.84206794  0.86333455     0.07600
H1045       H  0.49741794  0.85630083  0.84380131     0.11000
H1046       H  0.49998823  0.75897351  0.76554061     0.11300
H1047       H  0.56593302  0.74376877  0.78614023     0.07600
C1048       C  0.63292766  0.75638429  0.83158482    -0.11500
C1049       C  0.67201177  0.75374800  0.82171245    -0.10800
C1050       C  0.69112504  0.78592914  0.80584868    -0.01700
C1051       C  0.67165525  0.82173635  0.80388570    -0.11900
C1052       C  0.63282718  0.82454693  0.81453070    -0.10300
H1053       H  0.61787499  0.73051809  0.84074149     0.07600
H1054       H  0.68629277  0.72574988  0.82351864     0.11300
H1055       H  0.68579532  0.84701958  0.79199080     0.11000
H1056       H  0.61770678  0.85182641  0.81006541     0.07600
loop_ 
_geom_bond_atom_site_label_1 
_geom_bond_atom_site_label_2 
_geom_bond_distance 
_geom_bond_site_symmetry_2 
_ccdc_geom_bond_type 
C1            N2   1.357       .  A
C1            N6   1.359       .  A
C1         C1050   1.476       .  S
N2            C3   1.358       .  A
C3            N4   1.357       .  A
C3         C1030   1.479       .  S
N4            C5   1.359       .  A
C5            N6   1.358       .  A
C5         C1001   1.475       .  S
C7            N8   1.360       .  A
C7           N12   1.360       .  A
C7          C961   1.479       .  S
N8            C9   1.356       .  A
C9           N10   1.356       .  A
C9          C990   1.472       .  S
N10          C11   1.356       .  A
C11          N12   1.360       .  A
C11         C950   1.478       .  S
C13          N14   1.360       .  A
C13          N18   1.360       .  A
C13         C930   1.485       .  S
N14          C15   1.357       .  A
C15          N16   1.360       .  A
C15         C890   1.484       .  S
N16          C17   1.359       .  A
C17          N18   1.361       .  A
C17         C901   1.487       .  S
C19          N20   1.357       .  A
C19          N24   1.361       .  A
C19         C861   1.481       .  S
N20          C21   1.358       .  A
C21          N22   1.358       .  A
C21         C841   1.484       .  S
N22          C23   1.360       .  A
C23          N24   1.358       .  A
C23         C830   1.481       .  S
C25          N26   1.359       .  A
C25          N30   1.357       .  A
C25         C810   1.474       .  S
N26          C27   1.358       .  A
C27          N28   1.360       .  A
C27         C781   1.479       .  S
N28          C29   1.358       .  A
C29          N30   1.358       .  A
C29         C770   1.476       .  S
C31          N32   1.360       .  A
C31          N36   1.360       .  A
C31         C741   1.487       .  S
N32          C33   1.357       .  A
C33          N34   1.360       .  A
C33         C701   1.485       .  S
N34          C35   1.359       .  A
C35          N36   1.362       .  A
C35         C721   1.487       .  S
C37          N38   1.363       .  A
C37          N42   1.360       .  A
C37         C641   1.484       .  S
N38          C39   1.364       .  A
C39          N40   1.356       .  A
C39         C681   1.485       .  S
N40          C41   1.355       .  A
C41          N42   1.355       .  A
C41         C661   1.477       .  S
O43         Mg45   2.094       .  S
O43         Mg51   2.123   1_554  S
O43          C78   1.237       .  S
C44          O57   1.242   1_656  S
C44          O81   1.278   1_556  A
C44          H83   1.081       .  S
Mg45         O74   2.102   1_545  S
Mg45         O89   2.272   1_554  S
Mg45         O85   2.176   1_545  S
Mg45         O56   2.325       .  S
O46         Mg88   2.126   1_455  S
O46         Mg71   2.096       .  S
O46          C67   1.238       .  S
O47          C78   1.273       .  A
O47         Mg71   2.319       .  S
C48         C239   1.498       .  S
C48          O50   1.283       .  A
C48          O62   1.270       .  A
O49          C77   1.279   1_545  A
O49         Mg51   2.326       .  S
O50         Mg82   2.372       .  S
Mg51         O57   2.209   1_556  S
Mg51         O65   2.389       .  S
Mg51         O53   2.447       .  S
C52         C101   1.480       .  S
C52          O90   1.252       .  A
C52          O58   1.284       .  A
O53          C60   1.285       .  A
H54          C67   1.080       .  S
C55          O69   1.244   1_665  S
C55          O70   1.282   1_655  A
C55          H80   1.081       .  S
O56          C79   1.274       .  A
O57         Mg71   2.106       .  S
O58         Mg88   2.438       .  S
C59         C369   1.508       .  S
C59          O72   1.288       .  A
C59          O64   1.269       .  A
C60          C93   1.484       .  S
C60          O87   1.251       .  A
Mg61         O68   2.096       .  S
Mg61         O69   2.106       .  S
Mg61         O62   2.280   1_545  S
Mg61         O63   2.325       .  S
Mg61         O90   2.174   1_455  S
O63          C67   1.274       .  A
O64         Mg71   2.276   1_655  S
O65          C84   1.286       .  A
O66          C86   1.284       .  A
O66         Mg82   2.449       .  S
O68         Mg82   2.117   1_545  S
O68          C79   1.237       .  S
O69         Mg88   2.226   1_455  S
O70         Mg82   2.340       .  S
Mg71         O87   2.175   1_554  S
O72         Mg88   2.410       .  S
H73          C78   1.080       .  S
O74         Mg82   2.193       .  S
O74          C77   1.243   1_554  S
H75          C77   1.081       .  S
H76          C79   1.077       .  S
O81         Mg88   2.323       .  S
C84         C435   1.501       .  S
C84          O89   1.268       .  A
O85          C86   1.252       .  A
C86         C105   1.485       .  S
C91          N92   1.365       .  A
C91          N96   1.365       .  A
C91         C621   1.472       .  S
N92          C93   1.351       .  A
C93          N94   1.366   1_556  A
N94          C95   1.362       .  A
C95          N96   1.358   1_554  A
C95         C348   1.482       .  S
C97          N98   1.369       .  A
C97         N102   1.363       .  A
C97         C790   1.477       .  S
N98          C99   1.362   1_655  A
C99         N100   1.362       .  A
C99         C180   1.486       .  S
N100        C101   1.364   1_455  A
C101        N102   1.348       .  A
C103        N104   1.364       .  A
C103        N108   1.366       .  A
C103        C941   1.475       .  S
N104        C105   1.352       .  A
C105        N106   1.367   1_565  A
N106        C107   1.362       .  A
C107        N108   1.361   1_545  A
C107        C382   1.480       .  S
O109       Mg111   2.133       .  S
O109       Mg117   2.161       .  S
O109        C144   1.243       .  S
C110        O123   1.238       .  S
C110        O147   1.273       .  A
C110        H149   1.074       .  S
Mg111       O140   2.111       .  S
Mg111       O155   2.251       .  S
Mg111       O151   2.201       .  S
Mg111       O122   2.297       .  S
O112       Mg154   2.166       .  S
O112       Mg137   2.144       .  S
O112        C133   1.243       .  S
O113        C144   1.275       .  A
O113       Mg137   2.295       .  S
C114        C159   1.483       .  S
C114        O116   1.283       .  A
C114        O128   1.267       .  A
O115        C143   1.272       .  A
O115       Mg117   2.308       .  S
O116       Mg148   2.333       .  S
Mg117       O123   2.125       .  S
Mg117       O131   2.349       .  S
Mg117       O119   2.453       .  S
C118        C501   1.497       .  S
C118        O156   1.265       .  A
C118        O124   1.295       .  A
O119        C126   1.293   1_655  A
H120        C133   1.081       .  S
C121        O135   1.239       .  S
C121        O136   1.272       .  A
C121        H146   1.078       .  S
O122        C145   1.276       .  A
O123       Mg137   2.112       .  S
O124       Mg154   2.468       .  S
C125        C173   1.484       .  S
C125        O138   1.284       .  A
C125        O130   1.264       .  A
C126        C225   1.495       .  S
C126        O153   1.266   1_455  A
Mg127       O134   2.129       .  S
Mg127       O135   2.109       .  S
Mg127       O128   2.256       .  S
Mg127       O129   2.298       .  S
Mg127       O156   2.207       .  S
O129        C133   1.276       .  A
O130       Mg137   2.236       .  S
O131        C150   1.285       .  A
O132        C152   1.289       .  A
O132       Mg148   2.426       .  S
O134       Mg148   2.153       .  S
O134        C145   1.243       .  S
O135       Mg154   2.115       .  S
O136       Mg148   2.303       .  S
Mg137       O153   2.217       .  S
O138       Mg154   2.345       .  S
H139        C144   1.081       .  S
O140       Mg148   2.123       .  S
O140        C143   1.237       .  S
H141        C143   1.077       .  S
H142        C145   1.081       .  S
O147       Mg154   2.309       .  S
C150        C167   1.486       .  S
C150        O155   1.267       .  A
O151        C152   1.264       .  A
C152        C365   1.482       .  S
C157        N158   1.362       .  A
C157        N162   1.367       .  A
C157        C801   1.475       .  S
N158        C159   1.351       .  A
C159        N160   1.367       .  A
N160        C161   1.364       .  A
C161        N162   1.361       .  A
C161        C455   1.487       .  S
C163        N164   1.364       .  A
C163        N168   1.365       .  A
C163        C970   1.474   1_655  S
N164        C165   1.357       .  A
C165        N166   1.363       .  A
C165        C323   1.481       .  S
N166        C167   1.367       .  A
C167        N168   1.354       .  A
C169        N170   1.363       .  A
C169        N174   1.363       .  A
C169       C1010   1.469       .  S
N170        C171   1.358       .  A
C171        N172   1.364       .  A
C171        C191   1.482       .  S
N172        C173   1.368       .  A
C173        N174   1.351       .  A
O175       Mg177   2.099       .  S
O175       Mg183   2.130       .  S
O175        C210   1.239       .  S
C176        O189   1.242   1_655  S
C176        O213   1.279       .  A
C176        H215   1.081       .  S
Mg177       O206   2.108       .  S
Mg177       O221   2.252       .  S
Mg177       O217   2.195       .  S
Mg177       O188   2.328       .  S
O178       Mg220   2.130   1_455  S
O178       Mg203   2.104       .  S
O178        C199   1.239       .  S
O179        C210   1.275       .  A
O179       Mg203   2.335       .  S
C180        O182   1.283       .  A
C180        O194   1.266   1_545  A
O181        C209   1.277       .  A
O181       Mg183   2.321       .  S
O182       Mg214   2.370   1_545  S
Mg183       O189   2.221       .  S
Mg183       O197   2.396       .  S
Mg183       O185   2.434       .  S
C184        C237   1.481       .  S
C184        O222   1.250       .  A
C184        O190   1.283       .  A
O185        C192   1.282       .  A
H186        C199   1.081       .  S
C187        O201   1.242       .  S
C187        O202   1.278   1_655  A
C187        H212   1.081       .  S
O188        C211   1.274       .  A
O189       Mg203   2.102       .  S
O190       Mg220   2.422       .  S
C191        O204   1.283       .  A
C191        O196   1.265       .  A
C192        C227   1.486       .  S
C192        O219   1.246       .  A
Mg193       O200   2.105       .  S
Mg193       O201   2.100   1_455  S
Mg193       O194   2.247       .  S
Mg193       O195   2.333       .  S
Mg193       O222   2.203   1_455  S
O195        C199   1.275       .  A
O196       Mg203   2.249   1_655  S
O197        C216   1.287       .  A
O198        C218   1.284       .  A
O198       Mg214   2.422       .  S
O200       Mg214   2.137       .  S
O200        C211   1.238       .  S
O201       Mg220   2.194       .  S
O202       Mg214   2.324       .  S
Mg203       O219   2.201       .  S
O204       Mg220   2.360       .  S
H205        C210   1.081       .  S
O206       Mg214   2.198       .  S
O206        C209   1.242       .  S
H207        C209   1.081       .  S
H208        C211   1.081       .  S
O213       Mg220   2.328       .  S
C216        C561   1.495       .  S
C216        O221   1.266       .  A
O217        C218   1.249       .  A
C218        C231   1.480       .  S
C223        N224   1.370       .  A
C223        N228   1.360       .  A
C223        C650   1.464       .  S
N224        C225   1.366       .  A
C225        N226   1.369       .  A
N226        C227   1.364       .  A
C227        N228   1.344       .  A
C229        N230   1.357       .  A
C229        N234   1.371       .  A
C229        C850   1.464       .  S
N230        C231   1.342       .  A
C231        N232   1.363       .  A
N232        C233   1.368       .  A
C233        N234   1.369       .  A
C233        C521   1.498       .  S
C235        N236   1.359   1_455  A
C235        N240   1.371       .  A
C235        C910   1.467       .  S
N236        C237   1.344       .  A
C237        N238   1.363   1_655  A
N238        C239   1.367       .  A
C239        N240   1.369       .  A
O241       Mg243   2.131       .  S
O241       Mg249   2.156       .  S
O241        C276   1.243       .  S
C242        O255   1.239       .  S
C242        O279   1.275       .  A
C242        H281   1.072       .  S
Mg243       O272   2.105       .  S
Mg243       O287   2.258       .  S
Mg243       O283   2.203       .  S
Mg243       O254   2.294       .  S
O244       Mg286   2.154       .  S
O244       Mg269   2.133       .  S
O244        C265   1.243       .  S
O245        C276   1.276       .  A
O245       Mg269   2.297       .  S
C246        C297   1.482       .  S
C246        O248   1.283       .  A
C246        O260   1.264       .  A
O247        C275   1.272       .  A
O247       Mg249   2.306       .  S
O248       Mg280   2.331       .  S
Mg249       O255   2.130       .  S
Mg249       O263   2.352       .  S
Mg249       O251   2.458       .  S
C250        C429   1.492       .  S
C250        O288   1.263       .  A
C250        O256   1.295       .  A
O251        C258   1.293       .  A
H252        C265   1.081       .  S
C253        O267   1.239       .  S
C253        O268   1.273       .  A
C253        H278   1.079       .  S
O254        C277   1.275       .  A
O255       Mg269   2.107       .  S
O256       Mg286   2.469       .  S
C257        C291   1.487       .  S
C257        O270   1.285       .  A
C257        O262   1.266       .  A
C258        C495   1.491       .  S
C258        O285   1.263       .  A
Mg259       O266   2.127       .  S
Mg259       O267   2.108       .  S
Mg259       O260   2.244       .  S
Mg259       O261   2.297       .  S
Mg259       O288   2.196       .  S
O261        C265   1.276       .  A
O262       Mg269   2.255       .  S
O263        C282   1.286       .  A
O264        C284   1.290   1_556  A
O264       Mg280   2.439       .  S
O266       Mg280   2.152       .  S
O266        C277   1.243       .  S
O267       Mg286   2.110       .  S
O268       Mg280   2.306       .  S
Mg269       O285   2.196       .  S
O270       Mg286   2.346       .  S
H271        C276   1.081       .  S
O272       Mg280   2.117       .  S
O272        C275   1.237       .  S
H273        C275   1.079       .  S
H274        C277   1.081       .  S
O279       Mg286   2.314       .  S
C282        C305   1.487       .  S
C282        O287   1.267       .  A
O283        C284   1.265   1_556  A
C284        C359   1.486       .  S
C289        N290   1.362       .  A
C289        N294   1.366       .  A
C289        C601   1.475       .  S
N290        C291   1.351       .  A
C291        N292   1.369       .  A
N292        C293   1.366       .  A
C293        N294   1.362       .  A
C293        C480   1.488       .  S
C295        N296   1.360       .  A
C295        N300   1.365       .  A
C295        C761   1.478   1_556  S
N296        C297   1.350       .  A
C297        N298   1.370       .  A
N298        C299   1.366       .  A
C299        N300   1.363       .  A
C299        C390   1.485       .  S
C301        N302   1.367       .  A
C301        N306   1.363       .  A
C301       C1021   1.473       .  S
N302        C303   1.362       .  A
C303        N304   1.365       .  A
C303        C312   1.489       .  S
N304        C305   1.369       .  A
C305        N306   1.352       .  A
O307       Mg309   2.097       .  S
O307       Mg315   2.131       .  S
O307        C342   1.238       .  S
C308        O321   1.241       .  S
C308        O345   1.276       .  A
C308        H347   1.081       .  S
Mg309       O338   2.103   1_554  S
Mg309       O353   2.244       .  S
Mg309       O349   2.193   1_554  S
Mg309       O320   2.333       .  S
O310       Mg352   2.135       .  S
O310       Mg335   2.091       .  S
O310        C331   1.239       .  S
O311        C342   1.274       .  A
O311       Mg335   2.332       .  S
C312        O314   1.288       .  A
C312        O326   1.265       .  A
O313        C341   1.279   1_554  A
O313       Mg315   2.325       .  S
O314       Mg346   2.391       .  S
Mg315       O321   2.199       .  S
Mg315       O329   2.359   1_655  S
Mg315       O317   2.417       .  S
C316        C357   1.475       .  S
C316        O354   1.247       .  A
C316        O322   1.276       .  A
O317        C324   1.279       .  A
H318        C331   1.081       .  S
C319        O333   1.242   1_556  S
C319        O334   1.279       .  A
C319        H344   1.081       .  S
O320        C343   1.275       .  A
O321       Mg335   2.101       .  S
O322       Mg352   2.396       .  S
C323        O336   1.283       .  A
C323        O328   1.266       .  A
C324        C363   1.479       .  S
C324        O351   1.247       .  A
Mg325       O332   2.102   1_554  S
Mg325       O333   2.100       .  S
Mg325       O326   2.246   1_554  S
Mg325       O327   2.329       .  S
Mg325       O354   2.193       .  S
O327        C331   1.275       .  A
O328       Mg335   2.249       .  S
O329        C348   1.282       .  A
O330        C350   1.288       .  A
O330       Mg346   2.454       .  S
O332       Mg346   2.125       .  S
O332        C343   1.238   1_556  S
O333       Mg352   2.216       .  S
O334       Mg346   2.330       .  S
Mg335       O351   2.192       .  S
O336       Mg352   2.358       .  S
H337        C342   1.081       .  S
O338       Mg346   2.200       .  S
O338        C341   1.243       .  S
H339        C341   1.081       .  S
H340        C343   1.081       .  S
O345       Mg352   2.314       .  S
C348        O353   1.265   1_455  A
O349        C350   1.248       .  A
C350        C371   1.489       .  S
C355        N356   1.359       .  A
C355        N360   1.372       .  A
C355        C881   1.466       .  S
N356        C357   1.343       .  A
C357        N358   1.358       .  A
N358        C359   1.364       .  A
C359        N360   1.368       .  A
C361        N362   1.361       .  A
C361        N366   1.367       .  A
C361        C870   1.460       .  S
N362        C363   1.344       .  A
C363        N364   1.360       .  A
N364        C365   1.364       .  A
C365        N366   1.364       .  A
C367        N368   1.373       .  A
C367        N372   1.359   1_554  A
C367        C730   1.467       .  S
N368        C369   1.369       .  A
C369        N370   1.371       .  A
N370        C371   1.367   1_554  A
C371        N372   1.343       .  A
O373       Mg375   2.135   1_545  S
O373       Mg381   2.159       .  S
O373        C408   1.243       .  S
C374        O387   1.241       .  S
C374        O411   1.273       .  A
C374        H413   1.081       .  S
Mg375       O404   2.123   1_565  S
Mg375       O419   2.235   1_565  S
Mg375       O415   2.191       .  S
Mg375       O386   2.294       .  S
O376       Mg418   2.151       .  S
O376       Mg401   2.122       .  S
O376        C397   1.242       .  S
O377        C408   1.275       .  A
O377       Mg401   2.292       .  S
C378        C437   1.481       .  S
C378        O380   1.284       .  A
C378        O392   1.264       .  A
O379        C407   1.273       .  A
O379       Mg381   2.311       .  S
O380       Mg412   2.322       .  S
Mg381       O387   2.114       .  S
Mg381       O395   2.345       .  S
Mg381       O383   2.468       .  S
C382        O420   1.263   1_554  A
C382        O388   1.292       .  A
O383        C390   1.296       .  A
H384        C397   1.081   1_554  S
C385        O399   1.239       .  S
C385        O400   1.272       .  A
C385        H410   1.081       .  S
O386        C409   1.275       .  A
O387       Mg401   2.126       .  S
O388       Mg418   2.441   1_554  S
C389        C431   1.482       .  S
C389        O402   1.284       .  A
C389        O394   1.262       .  A
C390        O417   1.260       .  A
Mg391       O398   2.133       .  S
Mg391       O399   2.119   1_565  S
Mg391       O392   2.242       .  S
Mg391       O393   2.289   1_565  S
Mg391       O420   2.191   1_565  S
O393        C397   1.274       .  A
O394       Mg401   2.230       .  S
O395        C414   1.288       .  A
O396        C416   1.290       .  A
O396       Mg412   2.434       .  S
O398       Mg412   2.151       .  S
O398        C409   1.243       .  S
O399       Mg418   2.108       .  S
O400       Mg412   2.306   1_545  S
Mg401       O417   2.175       .  S
O402       Mg418   2.321       .  S
H403        C408   1.081       .  S
O404       Mg412   2.121   1_545  S
O404        C407   1.239       .  S
H405        C407   1.081       .  S
H406        C409   1.081       .  S
O411       Mg418   2.309       .  S
C414        C423   1.488       .  S
C414        O419   1.263       .  A
O415        C416   1.262       .  A
C416        C569   1.479       .  S
C421        N422   1.357       .  A
C421        N426   1.370       .  A
C421        C710   1.467       .  S
N422        C423   1.344       .  A
C423        N424   1.370       .  A
N424        C425   1.373       .  A
C425        N426   1.369       .  A
C425        C546   1.507       .  S
C427        N428   1.370       .  A
C427        N432   1.357       .  A
C427        C821   1.464       .  S
N428        C429   1.368       .  A
C429        N430   1.369       .  A
N430        C431   1.365       .  A
C431        N432   1.343       .  A
C433        N434   1.371   1_565  A
C433        N438   1.355       .  A
C433        C670   1.465       .  S
N434        C435   1.369       .  A
C435        N436   1.370   1_545  A
N436        C437   1.366       .  A
C437        N438   1.342       .  A
O439       Mg441   2.102       .  S
O439       Mg447   2.133       .  S
O439        C474   1.239       .  S
C440        O453   1.242       .  S
C440        O477   1.278       .  A
C440        H479   1.081       .  S
Mg441       O470   2.101       .  S
Mg441       O485   2.234       .  S
Mg441       O481   2.189       .  S
Mg441       O452   2.328       .  S
O442       Mg484   2.131       .  S
O442       Mg467   2.102       .  S
O442        C463   1.239       .  S
O443        C474   1.275       .  A
O443       Mg467   2.334       .  S
C444        C557   1.485       .  S
C444        O446   1.284       .  A
C444        O458   1.265       .  A
O445        C473   1.277       .  A
O445       Mg447   2.321       .  S
O446       Mg478   2.373       .  S
Mg447       O453   2.211       .  S
Mg447       O461   2.388       .  S
Mg447       O449   2.429       .  S
C448        C489   1.484       .  S
C448        O486   1.249       .  A
C448        O454   1.284       .  A
O449        C456   1.283       .  A
H450        C463   1.081       .  S
C451        O465   1.242       .  S
C451        O466   1.278       .  A
C451        H476   1.081       .  S
O452        C475   1.274       .  A
O453       Mg467   2.103       .  S
O454       Mg484   2.426       .  S
C455        O468   1.284       .  A
C455        O460   1.266       .  A
C456        C503   1.484       .  S
C456        O483   1.248       .  A
Mg457       O464   2.094       .  S
Mg457       O465   2.104       .  S
Mg457       O458   2.245       .  S
Mg457       O459   2.332       .  S
Mg457       O486   2.195       .  S
O459        C463   1.276       .  A
O460       Mg467   2.257       .  S
O461        C480   1.286       .  A
O462        C482   1.281       .  A
O462       Mg478   2.422       .  S
O464       Mg478   2.132       .  S
O464        C475   1.239       .  S
O465       Mg484   2.196       .  S
O466       Mg478   2.320       .  S
Mg467       O483   2.194       .  S
O468       Mg484   2.371       .  S
H469        C474   1.081       .  S
O470       Mg478   2.202       .  S
O470        C473   1.242       .  S
H471        C473   1.081       .  S
H472        C475   1.081       .  S
O477       Mg484   2.327       .  S
C480        O485   1.263       .  A
O481        C482   1.246       .  A
C482        C497   1.480       .  S
C487        N488   1.358       .  A
C487        N492   1.370       .  A
C487        C921   1.465       .  S
N488        C489   1.344       .  A
C489        N490   1.365       .  A
N490        C491   1.370       .  A
C491        N492   1.367       .  A
C491        C510   1.501       .  S
C493        N494   1.371       .  A
C493        N498   1.358       .  A
C493        C690   1.463       .  S
N494        C495   1.368       .  A
C495        N496   1.367       .  A
N496        C497   1.362       .  A
C497        N498   1.342       .  A
C499        N500   1.373       .  A
C499        N504   1.359       .  A
C499        C750   1.467       .  S
N500        C501   1.368       .  A
C501        N502   1.368       .  A
N502        C503   1.363       .  A
C503        N504   1.344       .  A
O505       Mg507   2.102       .  S
O505       Mg513   2.124       .  S
O505        C540   1.239       .  S
C506        O519   1.244       .  S
C506        O543   1.280       .  A
C506        H545   1.081       .  S
Mg507       O536   2.105       .  S
Mg507       O551   2.283       .  S
Mg507       O547   2.172       .  S
Mg507       O518   2.326       .  S
O508       Mg550   2.118       .  S
O508       Mg533   2.087       .  S
O508        C529   1.234       .  S
O509        C540   1.275       .  A
O509       Mg533   2.329       .  S
C510        O512   1.285       .  A
C510        O524   1.268       .  A
O511        C539   1.280       .  A
O511       Mg513   2.333       .  S
O512       Mg544   2.390       .  S
Mg513       O519   2.205       .  S
Mg513       O527   2.400   1_565  S
Mg513       O515   2.467       .  S
C514        C555   1.478       .  S
C514        O552   1.252       .  A
C514        O520   1.285       .  A
O515        C522   1.288       .  A
H516        C529   1.071       .  S
C517        O531   1.243       .  S
C517        O532   1.279       .  A
C517        H542   1.081       .  S
O518        C541   1.275       .  A
O519       Mg533   2.097       .  S
O520       Mg550   2.443       .  S
C521        O534   1.284       .  A
C521        O526   1.269       .  A
C522        C563   1.489       .  S
C522        O549   1.251       .  A
Mg523       O530   2.088       .  S
Mg523       O531   2.106       .  S
Mg523       O524   2.266       .  S
Mg523       O525   2.311       .  S
Mg523       O552   2.169       .  S
O525        C529   1.273       .  A
O526       Mg533   2.268       .  S
O527        C546   1.288       .  A
O528        C548   1.282       .  A
O528       Mg544   2.440       .  S
O530       Mg544   2.113       .  S
O530        C541   1.237       .  S
O531       Mg550   2.200       .  S
O532       Mg544   2.327       .  S
Mg533       O549   2.173       .  S
O534       Mg550   2.382       .  S
H535        C540   1.081       .  S
O536       Mg544   2.218       .  S
O536        C539   1.243       .  S
H537        C539   1.081       .  S
H538        C541   1.073       .  S
O543       Mg550   2.331       .  S
C546        O551   1.270   1_545  A
O547        C548   1.250       .  A
C548        C567   1.482       .  S
C553        N554   1.364       .  A
C553        N558   1.369       .  A
C553        C981   1.478       .  S
N554        C555   1.349       .  A
C555        N556   1.365       .  A
N556        C557   1.361       .  A
C557        N558   1.363       .  A
C559        N560   1.370       .  A
C559        N564   1.365       .  A
C559        C581   1.477       .  S
N560        C561   1.361       .  A
C561        N562   1.365       .  A
N562        C563   1.368       .  A
C563        N564   1.349       .  A
C565        N566   1.363       .  A
C565        N570   1.363       .  A
C565       C1041   1.471       .  S
N566        C567   1.352       .  A
C567        N568   1.368       .  A
N568        C569   1.363       .  A
C569        N570   1.358       .  A
C571        N572   1.361       .  A
C571        N576   1.359       .  A
C571        C610   1.478       .  S
N572        C573   1.361       .  A
C573        N574   1.356       .  A
C573        C590   1.477       .  S
N574        C575   1.356       .  A
C575        N576   1.356       .  A
C575        C630   1.473       .  S
C577        H587   1.084       .  S
C577        C578   1.401       .  A
C577        C582   1.391       .  A
C578        C583   1.473       .  S
C578        C579   1.403       .  A
C579        H584   1.083       .  S
C579        C580   1.400       .  A
C580        H585   1.083   1_545  S
C580        C581   1.407   1_545  A
C581        C582   1.405   1_565  A
C582        H586   1.080       .  S
C583        C588   1.400       .  A
C583        C592   1.405       .  A
C588        H593   1.083       .  S
C588        C589   1.397       .  A
C589        H594   1.083       .  S
C589        C590   1.408       .  A
C590        C591   1.403       .  A
C591        H595   1.083       .  S
C591        C592   1.398       .  A
C592        H596   1.083       .  S
C597        H607   1.083       .  S
C597        C598   1.406       .  A
C597        C602   1.402       .  A
C598        C603   1.481       .  S
C598        C599   1.404       .  A
C599        H604   1.083       .  S
C599        C600   1.394       .  A
C600        H605   1.080       .  S
C600        C601   1.401       .  A
C601        C602   1.406       .  A
C602        H606   1.083       .  S
C603        C608   1.405       .  A
C603        C612   1.405       .  A
C608        H613   1.083       .  S
C608        C609   1.398       .  A
C609        H614   1.083       .  S
C609        C610   1.405       .  A
C610        C611   1.405       .  A
C611        H615   1.083       .  S
C611        C612   1.398       .  A
C612        H616   1.083       .  S
C617        H627   1.083       .  S
C617        C618   1.404       .  A
C617        C622   1.399       .  A
C618        C623   1.474       .  S
C618        C619   1.403       .  A
C619        H624   1.084       .  S
C619        C620   1.393       .  A
C620        H625   1.078       .  S
C620        C621   1.400       .  A
C621        C622   1.406       .  A
C622        H626   1.083       .  S
C623        C628   1.404       .  A
C623        C632   1.403       .  A
C628        H633   1.083       .  S
C628        C629   1.395       .  A
C629        H634   1.083       .  S
C629        C630   1.402       .  A
C630        C631   1.406       .  A
C631        H635   1.083       .  S
C631        C632   1.398       .  A
C632        H636   1.083       .  S
C637        H647   1.084       .  S
C637        C638   1.404       .  A
C637        C642   1.392       .  A
C638        C643   1.482       .  S
C638        C639   1.405       .  A
C639        H644   1.081       .  S
C639        C640   1.403       .  A
C640        H645   1.083       .  S
C640        C641   1.406       .  A
C641        C642   1.406       .  A
C642        H646   1.083       .  S
C643        C648   1.405       .  A
C643        C652   1.405       .  A
C648        H653   1.083       .  S
C648        C649   1.400       .  A
C649        H654   1.083       .  S
C649        C650   1.403       .  A
C650        C651   1.404       .  A
C651        H655   1.084       .  S
C651        C652   1.396       .  A
C652        H656   1.083       .  S
C657        H667   1.084       .  S
C657        C658   1.402       .  A
C657        C662   1.394       .  A
C658        C663   1.475       .  S
C658        C659   1.402       .  A
C659        H664   1.079       .  S
C659        C660   1.401       .  A
C660        H665   1.083       .  S
C660        C661   1.407       .  A
C661        C662   1.405       .  A
C662        H666   1.083       .  S
C663        C668   1.403       .  A
C663        C672   1.399       .  A
C668        H673   1.083       .  S
C668        C669   1.401       .  A
C669        H674   1.083       .  S
C669        C670   1.404       .  A
C670        C671   1.406       .  A
C671        H675   1.084   1_565  S
C671        C672   1.397       .  A
C672        H676   1.083       .  S
C677        H687   1.083       .  S
C677        C678   1.399       .  A
C677        C682   1.399       .  A
C678        C683   1.476       .  S
C678        C679   1.405       .  A
C679        H684   1.084       .  S
C679        C680   1.397       .  A
C680        H685   1.083       .  S
C680        C681   1.405       .  A
C681        C682   1.412       .  A
C682        H686   1.083       .  S
C683        C688   1.402       .  A
C683        C692   1.403       .  A
C688        H693   1.083       .  S
C688        C689   1.397       .  A
C689        H694   1.084       .  S
C689        C690   1.404       .  A
C690        C691   1.405       .  A
C691        H695   1.084       .  S
C691        C692   1.401       .  A
C692        H696   1.084       .  S
C697        H707   1.084       .  S
C697        C698   1.405       .  A
C697        C702   1.394       .  A
C698        C703   1.481       .  S
C698        C699   1.403       .  A
C699        H704   1.083       .  S
C699        C700   1.404       .  A
C700        H705   1.083       .  S
C700        C701   1.410       .  A
C701        C702   1.404       .  A
C702        H706   1.082       .  S
C703        C708   1.405       .  A
C703        C712   1.403       .  A
C708        H713   1.083       .  S
C708        C709   1.402       .  A
C709        H714   1.083       .  S
C709        C710   1.404       .  A
C710        C711   1.405       .  A
C711        H715   1.084       .  S
C711        C712   1.397       .  A
C712        H716   1.083       .  S
C717        H727   1.083       .  S
C717        C718   1.403       .  A
C717        C722   1.404       .  A
C718        C723   1.482       .  S
C718        C719   1.405       .  A
C719        H724   1.084       .  S
C719        C720   1.394       .  A
C720        H725   1.082       .  S
C720        C721   1.404       .  A
C721        C722   1.411       .  A
C722        H726   1.083       .  S
C723        C728   1.404       .  A
C723        C732   1.405       .  A
C728        H733   1.083       .  S
C728        C729   1.397   1_556  A
C729        H734   1.084       .  S
C729        C730   1.404       .  A
C730        C731   1.405   1_554  A
C731        H735   1.083       .  S
C731        C732   1.402       .  A
C732        H736   1.083       .  S
C737        H747   1.084       .  S
C737        C738   1.403       .  A
C737        C742   1.392       .  A
C738        C743   1.482       .  S
C738        C739   1.405       .  A
C739        H744   1.083       .  S
C739        C740   1.405       .  A
C740        H745   1.083       .  S
C740        C741   1.410       .  A
C741        C742   1.405       .  A
C742        H746   1.081       .  S
C743        C748   1.404       .  A
C743        C752   1.405       .  A
C748        H753   1.083       .  S
C748        C749   1.401       .  A
C749        H754   1.083       .  S
C749        C750   1.404       .  A
C750        C751   1.404       .  A
C751        H755   1.084       .  S
C751        C752   1.398       .  A
C752        H756   1.083       .  S
C757        H767   1.083       .  S
C757        C758   1.404       .  A
C757        C762   1.402       .  A
C758        C763   1.479       .  S
C758        C759   1.403       .  A
C759        H764   1.084       .  S
C759        C760   1.393       .  A
C760        H765   1.080       .  S
C760        C761   1.403       .  A
C761        C762   1.407       .  A
C762        H766   1.083       .  S
C763        C768   1.405       .  A
C763        C772   1.404       .  A
C768        H773   1.083       .  S
C768        C769   1.397       .  A
C769        H774   1.083       .  S
C769        C770   1.404       .  A
C770        C771   1.406       .  A
C771        H775   1.083       .  S
C771        C772   1.398       .  A
C772        H776   1.083       .  S
C777        H787   1.083       .  S
C777        C778   1.403       .  A
C777        C782   1.395       .  A
C778        C783   1.474       .  S
C778        C779   1.402       .  A
C779        H784   1.083       .  S
C779        C780   1.400       .  A
C780        H785   1.083       .  S
C780        C781   1.408       .  A
C781        C782   1.403       .  A
C782        H786   1.083       .  S
C783        C788   1.404       .  A
C783        C792   1.401       .  A
C788        H793   1.083       .  S
C788        C789   1.401       .  A
C789        H794   1.083       .  S
C789        C790   1.406       .  A
C790        C791   1.403       .  A
C791        H795   1.079       .  S
C791        C792   1.392       .  A
C792        H796   1.084       .  S
C797        H807   1.084       .  S
C797        C798   1.404       .  A
C797        C802   1.395       .  A
C798        C803   1.479       .  S
C798        C799   1.404       .  A
C799        H804   1.083       .  S
C799        C800   1.399       .  A
C800        H805   1.083       .  S
C800        C801   1.405       .  A
C801        C802   1.404       .  A
C802        H806   1.079       .  S
C803        C808   1.403       .  A
C803        C812   1.406       .  A
C808        H813   1.083       .  S
C808        C809   1.399       .  A
C809        H814   1.083       .  S
C809        C810   1.406       .  A
C810        C811   1.401       .  A
C811        H815   1.083       .  S
C811        C812   1.396       .  A
C812        H816   1.083       .  S
C817        H827   1.083       .  S
C817        C818   1.404       .  A
C817        C822   1.394       .  A
C818        C823   1.483   1_556  S
C818        C819   1.405   1_556  A
C819        H824   1.083       .  S
C819        C820   1.402   1_554  A
C820        H825   1.083       .  S
C820        C821   1.405       .  A
C821        C822   1.402       .  A
C822        H826   1.084       .  S
C823        C828   1.405       .  A
C823        C832   1.405       .  A
C828        H833   1.083       .  S
C828        C829   1.404       .  A
C829        H834   1.083       .  S
C829        C830   1.409       .  A
C830        C831   1.402       .  A
C831        H835   1.083       .  S
C831        C832   1.392       .  A
C832        H836   1.083       .  S
C837        H847   1.084       .  S
C837        C838   1.404       .  A
C837        C842   1.393       .  A
C838        C843   1.477   1_545  S
C838        C839   1.402       .  A
C839        H844   1.083       .  S
C839        C840   1.402       .  A
C840        H845   1.083       .  S
C840        C841   1.410       .  A
C841        C842   1.405       .  A
C842        H846   1.083       .  S
C843        C848   1.404       .  A
C843        C852   1.403       .  A
C848        H853   1.083   1_565  S
C848        C849   1.402       .  A
C849        H854   1.083       .  S
C849        C850   1.404       .  A
C850        C851   1.405       .  A
C851        H855   1.084       .  S
C851        C852   1.395       .  A
C852        H856   1.083       .  S
C857        H867   1.083       .  S
C857        C858   1.401       .  A
C857        C862   1.401       .  A
C858        C863   1.473   1_455  S
C858        C859   1.404       .  A
C859        H864   1.084   1_455  S
C859        C860   1.392       .  A
C860        H865   1.083       .  S
C860        C861   1.404       .  A
C861        C862   1.410       .  A
C862        H866   1.083       .  S
C863        C868   1.403       .  A
C863        C872   1.403       .  A
C868        H873   1.083       .  S
C868        C869   1.393       .  A
C869        H874   1.084       .  S
C869        C870   1.402       .  A
C870        C871   1.405       .  A
C871        H875   1.084       .  S
C871        C872   1.400       .  A
C872        H876   1.083   1_655  S
C877        H887   1.083       .  S
C877        C878   1.404       .  A
C877        C882   1.402       .  A
C878        C883   1.479       .  S
C878        C879   1.403       .  A
C879        H884   1.083       .  S
C879        C880   1.396       .  A
C880        H885   1.084       .  S
C880        C881   1.404       .  A
C881        C882   1.405       .  A
C882        H886   1.083       .  S
C883        C888   1.404       .  A
C883        C892   1.403       .  A
C888        H893   1.084       .  S
C888        C889   1.393       .  A
C889        H894   1.083       .  S
C889        C890   1.404       .  A
C890        C891   1.411       .  A
C891        H895   1.083       .  S
C891        C892   1.404       .  A
C892        H896   1.083       .  S
C897        H907   1.082       .  S
C897        C898   1.403       .  A
C897        C902   1.402       .  A
C898        C903   1.483       .  S
C898        C899   1.405       .  A
C899        H904   1.084       .  S
C899        C900   1.395       .  A
C900        H905   1.082       .  S
C900        C901   1.405       .  A
C901        C902   1.410       .  A
C902        H906   1.083       .  S
C903        C908   1.404   1_655  A
C903        C912   1.406       .  A
C908        H913   1.083       .  S
C908        C909   1.397       .  A
C909        H914   1.084       .  S
C909        C910   1.405       .  A
C910        C911   1.403   1_455  A
C911        H915   1.083       .  S
C911        C912   1.401       .  A
C912        H916   1.083       .  S
C917        H927   1.083       .  S
C917        C918   1.403       .  A
C917        C922   1.396       .  A
C918        C923   1.477       .  S
C918        C919   1.404       .  A
C919        H924   1.083       .  S
C919        C920   1.401       .  A
C920        H925   1.083       .  S
C920        C921   1.403       .  A
C921        C922   1.404       .  A
C922        H926   1.084       .  S
C923        C928   1.403       .  A
C923        C932   1.402       .  A
C928        H933   1.082       .  S
C928        C929   1.404       .  A
C929        H934   1.083       .  S
C929        C930   1.410       .  A
C930        C931   1.405       .  A
C931        H935   1.083       .  S
C931        C932   1.392       .  A
C932        H936   1.084       .  S
C937        H947   1.084       .  S
C937        C938   1.404       .  A
C937        C942   1.395       .  A
C938        C943   1.479       .  S
C938        C939   1.404       .  A
C939        H944   1.083       .  S
C939        C940   1.399       .  A
C940        H945   1.083       .  S
C940        C941   1.406       .  A
C941        C942   1.401       .  A
C942        H946   1.077       .  S
C943        C948   1.403       .  A
C943        C952   1.406       .  A
C948        H953   1.083       .  S
C948        C949   1.399       .  A
C949        H954   1.083       .  S
C949        C950   1.408       .  A
C950        C951   1.402       .  A
C951        H955   1.083       .  S
C951        C952   1.396       .  A
C952        H956   1.083       .  S
C957        H967   1.083       .  S
C957        C958   1.402       .  A
C957        C962   1.399       .  A
C958        C963   1.474       .  S
C958        C959   1.403       .  A
C959        H964   1.084       .  S
C959        C960   1.395       .  A
C960        H965   1.083       .  S
C960        C961   1.405       .  A
C961        C962   1.407       .  A
C962        H966   1.083       .  S
C963        C968   1.403       .  A
C963        C972   1.403       .  A
C968        H973   1.084       .  S
C968        C969   1.393       .  A
C969        H974   1.080       .  S
C969        C970   1.401       .  A
C970        C971   1.407       .  A
C971        H975   1.083       .  S
C971        C972   1.399       .  A
C972        H976   1.083       .  S
C977        H987   1.084       .  S
C977        C978   1.402       .  A
C977        C982   1.392       .  A
C978        C983   1.475       .  S
C978        C979   1.404       .  A
C979        H984   1.083       .  S
C979        C980   1.402       .  A
C980        H985   1.083       .  S
C980        C981   1.406       .  A
C981        C982   1.404       .  A
C982        H986   1.080       .  S
C983        C988   1.403       .  A
C983        C992   1.404       .  A
C988        H993   1.083       .  S
C988        C989   1.399       .  A
C989        H994   1.083       .  S
C989        C990   1.405       .  A
C990        C991   1.402       .  A
C991        H995   1.083       .  S
C991        C992   1.396       .  A
C992        H996   1.083       .  S
C997       H1007   1.083       .  S
C997        C998   1.405       .  A
C997       C1002   1.394       .  A
C998       C1003   1.477       .  S
C998        C999   1.404       .  A
C999       H1004   1.083       .  S
C999       C1000   1.398       .  A
C1000      H1005   1.083       .  S
C1000      C1001   1.406       .  A
C1001      C1002   1.402       .  A
C1002      H1006   1.083       .  S
C1003      C1008   1.405       .  A
C1003      C1012   1.404       .  A
C1008      H1013   1.083       .  S
C1008      C1009   1.398       .  A
C1009      H1014   1.083       .  S
C1009      C1010   1.405       .  A
C1010      C1011   1.400       .  A
C1011      H1015   1.080       .  S
C1011      C1012   1.393       .  A
C1012      H1016   1.083       .  S
C1017      H1027   1.083       .  S
C1017      C1018   1.405       .  A
C1017      C1022   1.400       .  A
C1018      C1023   1.479       .  S
C1018      C1019   1.404       .  A
C1019      H1024   1.083       .  S
C1019      C1020   1.396       .  A
C1020      H1025   1.080       .  S
C1020      C1021   1.402       .  A
C1021      C1022   1.405       .  A
C1022      H1026   1.083       .  S
C1023      C1028   1.405       .  A
C1023      C1032   1.404       .  A
C1028      H1033   1.083       .  S
C1028      C1029   1.395       .  A
C1029      H1034   1.083       .  S
C1029      C1030   1.403       .  A
C1030      C1031   1.407       .  A
C1031      H1035   1.083       .  S
C1031      C1032   1.400       .  A
C1032      H1036   1.083       .  S
C1037      H1047   1.083       .  S
C1037      C1038   1.405       .  A
C1037      C1042   1.395       .  A
C1038      C1043   1.476       .  S
C1038      C1039   1.402       .  A
C1039      H1044   1.083       .  S
C1039      C1040   1.397       .  A
C1040      H1045   1.083       .  S
C1040      C1041   1.407       .  A
C1041      C1042   1.401       .  A
C1042      H1046   1.081       .  S
C1043      C1048   1.402       .  A
C1043      C1052   1.405       .  A
C1048      H1053   1.083       .  S
C1048      C1049   1.397       .  A
C1049      H1054   1.083       .  S
C1049      C1050   1.407       .  A
C1050      C1051   1.403       .  A
C1051      H1055   1.083       .  S
C1051      C1052   1.396       .  A
C1052      H1056   1.083       .  S
