geometry optimzed in LAMMPS
_audit_creation_date              2020-11-30 
_audit_creation_method            'lammps2cif' 
_symmetry_space_group_name_H-M    'P1' 
_symmetry_Int_Tables_number       1 
_symmetry_cell_setting            triclinic 
loop_ 
_symmetry_equiv_pos_as_xyz 
  x,y,z 
_cell_length_a                    41.24413674 
_cell_length_b                    34.45655386390556 
_cell_length_c                    29.617501330258193 
_cell_angle_alpha                 83.85055663199253 
_cell_angle_beta                  86.19177716470072 
_cell_angle_gamma                 88.81499943086705 
loop_ 
_atom_site_label 
_atom_site_type_symbol 
_atom_site_fract_x 
_atom_site_fract_y 
_atom_site_fract_z 
_atom_site_charge 
O1          O  0.18888005  0.82761398  0.03007072    -0.55200
C2          C  0.09859196  0.89232759  0.06227923     0.77400
O3          O  0.15497554  0.91841934  0.11354232    -0.56400
C4          C  0.20865188  0.83216694  0.16209434     0.77400
C5          C  0.12431888  0.77867747  0.15863285     0.79800
Cd6        Cd  0.14197244  0.85889943  0.16043284     1.37500
O7          O  0.12421714  0.87619598  0.07564146    -0.55200
O8          O  0.13900057  0.78962584  0.19107903    -0.54000
C9          C  0.16961422  0.93327632  0.14350122     0.79800
O10         O  0.11561143  0.80514860  0.12860906    -0.56400
O11         O  0.09040630  0.88366672  0.19280315    -0.54800
O12         O  0.19705527  0.84667713  0.12545209    -0.54800
O13         O  0.17350449  0.91224583  0.18052801    -0.54000
O14         O  0.32335325  0.83544703  0.11099161    -0.55200
C15         C  0.42382290  0.88844035  0.12490803     0.77400
O16         O  0.34883220  0.89103172  0.05661346    -0.56400
C17         C  0.30037543  0.83635180  0.14163885     0.77400
C18         C  0.37808864  0.77186207  0.03429095     0.79800
Cd19       Cd  0.36491129  0.84986782  0.99666620     1.37500
O20         O  0.40256572  0.87867348  0.09925511    -0.55200
O21         O  0.37400738  0.77938752  0.15897337    -0.54000
C22         C  0.34461117  0.92178205  0.03012529     0.79800
O23         O  0.37656647  0.79977775  0.05915616    -0.56400
O24         O  0.42098556  0.87289112  0.00013049    -0.54800
O25         O  0.30790279  0.83955154  0.01452719    -0.54800
O26         O  0.34871617  0.91902372  0.98789289    -0.54000
C27         C  0.08144899  0.92532597  0.08336239    -0.08200
C28         C  0.09749453  0.96135356  0.08002866    -0.02100
C29         C  0.08122859  0.99652508  0.08805855    -0.08200
C30         C  0.04696515  0.99651259  0.09546274     0.12700
C31         C  0.03002022  0.96069845  0.09791943     0.00000
C32         C  0.04738232  0.92499237  0.09360054     0.12500
C33         C  0.03004708  0.88989544  0.09781883    -0.10000
C34         C  0.49677886  0.88802036  0.10701151    -0.10000
C35         C  0.47881439  0.92294779  0.10847454     0.12500
C36         C  0.49564556  0.95893239  0.10574177     0.00000
C37         C  0.02907494  0.03145402  0.09850951    -0.10100
C38         C  0.49500820  0.02969272  0.10635162    -0.10100
C39         C  0.47794814  0.99483913  0.10651392     0.12700
C40         C  0.44361228  0.99461056  0.10793627    -0.08200
C41         C  0.42765402  0.95899589  0.10990139    -0.02100
C42         C  0.44441442  0.92319066  0.11175819    -0.08200
H43         H  0.04260761  0.86215919  0.09583514     0.10000
H44         H  0.48461687  0.86027523  0.10903994     0.10000
H45         H  0.04125011  0.05914036  0.09710281     0.10200
H46         H  0.48218507  0.05732752  0.10769848     0.10200
H47         H  0.12263776  0.96291252  0.06709912     0.06600
H48         H  0.40128941  0.95906506  0.11242657     0.06600
O49         O  0.11491357  0.04696630  0.11158227    -0.55200
C50         C  0.21309359  0.11658307  0.08143933     0.77400
O51         O  0.16398901  0.04949773  0.16167876    -0.56400
C52         C  0.10079359  0.03285183  0.08016687     0.77400
C53         C  0.12927109  0.16564983  0.02748197     0.79800
Cd54       Cd  0.15235230  0.08942351  0.05658150     1.37500
O55         O  0.19147308  0.10471983  0.11216999    -0.55200
O56         O  0.12869200  0.15291074  0.06931843    -0.54000
C57         C  0.18532629  0.02696157  0.01892766     0.79800
O58         O  0.13725537  0.14162129  0.99888656    -0.56400
O59         O  0.20549409  0.11842931  0.04050297    -0.54800
O60         O  0.10688803  0.04894568  0.04020213    -0.54800
O61         O  0.19341213  0.03757053  0.05609845    -0.54000
O62         O  0.30970079  0.07343291  0.15123594    -0.55200
C63         C  0.42220975  0.02952954  0.11043674     0.77400
O64         O  0.36138977  0.05846202  0.03321973    -0.56400
C65         C  0.29662895  0.09948770  0.12464490     0.77400
C66         C  0.38367446  0.16098765  0.10420122     0.79800
Cd67       Cd  0.36470040  0.07990105  0.11288034     1.37500
O68         O  0.40585196  0.03673910  0.98249931    -0.55200
O69         O  0.38880415  0.13801315  0.13925499    -0.54800
C70         C  0.34637197  0.02861426  0.04955312     0.79800
O71         O  0.37288103  0.14587451  0.07136344    -0.56400
O72         O  0.41503474  0.05146343  0.07530587    -0.54800
O73         O  0.31536168  0.11832281  0.09487397    -0.54800
O74         O  0.33462232  0.02767059  0.09017147    -0.54000
O75         O  0.13961690  0.55869759  0.10232282    -0.55200
C76         C  0.04461318  0.61079735  0.12462648     0.77400
O77         O  0.08827132  0.54467693  0.06111453    -0.56400
C78         C  0.16007672  0.54367372  0.12932820     0.77400
C79         C  0.12220891  0.66732452  0.00964061     0.79800
Cd80       Cd  0.10587143  0.58981837  0.16051832     1.37500
O81         O  0.07013030  0.60928966  0.09843326    -0.55200
O82         O  0.11976932  0.65741737  0.13827070    -0.54000
C83         C  0.07638906  0.52076656  0.03719100     0.79800
O84         O  0.11957936  0.64036669  0.04240586    -0.56400
O85         O  0.04842694  0.60902316  0.99943230    -0.54800
O86         O  0.15498469  0.55121541  0.00745517    -0.54800
O87         O  0.07590202  0.53095756  0.99489091    -0.54000
O88         O  0.35858236  0.54409471  0.14634947    -0.55200
C89         C  0.45263633  0.60822560  0.11869202     0.77400
O90         O  0.41220414  0.53874102  0.02819535    -0.56400
C91         C  0.33868187  0.53449955  0.11870758     0.77400
C92         C  0.37704508  0.65994618  0.05043267     0.79800
Cd93       Cd  0.39411531  0.58254454  0.08650219     1.37500
O94         O  0.42782859  0.60095560  0.14583207    -0.55200
O95         O  0.37846268  0.65065401  0.09283151    -0.54000
C96         C  0.43000689  0.51792486  0.05478758     0.79800
O97         O  0.37979417  0.63245461  0.02511252    -0.56400
O98         O  0.44946474  0.60565421  0.07685531    -0.54800
O99         O  0.34150808  0.55166467  0.07872946    -0.54800
O100        O  0.43190585  0.52814317  0.09416095    -0.54000
C101        C  0.17874491  0.43862682  0.11548528    -0.08200
C102        C  0.16335350  0.47536532  0.11378604    -0.02100
C103        C  0.18029966  0.50934230  0.11886006    -0.08200
C104        C  0.21433134  0.50722784  0.12211008     0.12700
C105        C  0.23071534  0.47055660  0.12148005     0.00000
C106        C  0.21285323  0.43608882  0.11863834     0.12500
C107        C  0.22958767  0.40013488  0.11866306    -0.10000
C108        C  0.26328943  0.39794342  0.12116735    -0.10000
C109        C  0.28137167  0.43154910  0.12439816     0.12500
C110        C  0.26495235  0.46822996  0.12485497     0.00000
C111        C  0.23242668  0.54083975  0.12527395    -0.10100
C112        C  0.26613919  0.53873325  0.12711768    -0.10100
C113        C  0.28283639  0.50280524  0.12708037     0.12700
C114        C  0.31697498  0.50044788  0.12944977    -0.08200
C115        C  0.33238706  0.46376247  0.13160291    -0.02100
C116        C  0.31546793  0.42959541  0.12737524    -0.08200
H117        H  0.21671586  0.37346957  0.11606125     0.10000
H118        H  0.27512161  0.36960331  0.12101833     0.10000
H119        H  0.22065321  0.56920900  0.12545034     0.10200
H120        H  0.27907207  0.56544091  0.12925415     0.10200
H121        H  0.13703369  0.47694854  0.11363834     0.06600
H122        H  0.35870186  0.46231794  0.13130318     0.06600
O123        O  0.06762091  0.33823206  0.09780246    -0.55200
C124        C  0.15698315  0.40450308  0.12477817     0.77400
O125        O  0.08566987  0.40082453  0.04717014    -0.56400
C126        C  0.04274658  0.33256605  0.12530864     0.77400
C127        C  0.12167001  0.27683582  0.02297025     0.79800
Cd128      Cd  0.10350042  0.35477749  0.99139907     1.37500
O129        O  0.13551604  0.39761174  0.09805187    -0.55200
O130        O  0.11868508  0.28889008  0.14670594    -0.54000
C131        C  0.06788392  0.42079097  0.01972153     0.79800
O132        O  0.11671330  0.30230319  0.05079150    -0.56400
O133        O  0.15472789  0.38635832  0.00284504    -0.54800
O134        O  0.04807592  0.33431264  0.00257668    -0.54800
O135        O  0.06543475  0.40873186  0.98132806    -0.54000
O136        O  0.35642225  0.38070809  0.97801576    -0.55200
C137        C  0.45291085  0.32921749  0.12362328     0.77400
O138        O  0.37983334  0.29753939  0.04111830    -0.56400
C139        C  0.33599507  0.39551008  0.11682203     0.77400
C140        C  0.42079675  0.41901395  0.03982863     0.79800
Cd141      Cd  0.39215743  0.35062076  0.08773632     1.37500
O142        O  0.42668768  0.33230869  0.98230900    -0.55200
O143        O  0.42409629  0.40912092  0.08170825    -0.54000
C144        C  0.37919821  0.27177421  0.07523517     0.79800
O145        O  0.40622870  0.39542643  0.01851913    -0.56400
O146        O  0.44926677  0.33247137  0.08124124    -0.54800
O147        O  0.33972163  0.38613829  0.07663003    -0.54800
O148        O  0.38085843  0.28367758  0.11390872    -0.54000
C149        C  0.01057030  0.32601812  0.10913212    -0.13800
C150        C  0.48499598  0.32284756  0.14188500    -0.29000
H151        H  0.00878424  0.32454192  0.07325590     0.15200
H152        H  0.48540184  0.32186667  0.01033254     0.15800
C153        C  0.44546676  0.48122788  0.04358932    -0.13800
C154        C  0.42990610  0.45816347  0.01882805    -0.29000
H155        H  0.46115595  0.46758194  0.06903455     0.15200
H156        H  0.41471467  0.47102081  0.99245563     0.15800
C157        C  0.06713794  0.48099741  0.05590617    -0.13800
C158        C  0.05319625  0.45853645  0.02863800    -0.29000
H159        H  0.08060785  0.46769656  0.08396527     0.15200
H160        H  0.03919146  0.47263103  0.00146049     0.15800
C161        C  0.01226746  0.61635469  0.10635669    -0.13800
C162        C  0.48424973  0.61630068  0.13568635    -0.29000
H163        H  0.01074966  0.61637521  0.07009229     0.15200
H164        H  0.48569584  0.61544415  0.17201562     0.15800
C165        C  0.37731311  0.22967153  0.07081609    -0.13800
C166        C  0.38848447  0.20329922  0.10329098    -0.29000
H167        H  0.36680608  0.22030046  0.04115834     0.15200
H168        H  0.39954749  0.21326238  0.13226641     0.15800
C169        C  0.12212749  0.20687772  0.01246509    -0.13800
C170        C  0.12734537  0.23539371  0.03878569    -0.29000
H171        H  0.11412524  0.21407929  0.97860094     0.15200
H172        H  0.13567455  0.22819465  0.07246968     0.15800
C173        C  0.24660645  0.12493468  0.09127622    -0.13800
C174        C  0.26102391  0.10479105  0.12599987    -0.29000
H175        H  0.26139449  0.14132141  0.06438478     0.15200
H176        H  0.24665205  0.08607968  0.15114158     0.15800
C177        C  0.37363151  0.70092071  0.03095523    -0.13800
C178        C  0.38046550  0.73088573  0.05429894    -0.29000
H179        H  0.36704253  0.70648579  0.99599386     0.15200
H180        H  0.38713430  0.72531361  0.08924317     0.15800
C181        C  0.33655560  0.95898749  0.04830167    -0.13800
C182        C  0.34564421  0.99330579  0.02562554    -0.29000
H183        H  0.32687511  0.95772024  0.08339718     0.15200
H184        H  0.35723520  0.99274358  0.15673823     0.15800
C185        C  0.11858440  0.73716806  0.15457943    -0.13800
C186        C  0.12775927  0.70800567  0.18534083    -0.29000
H187        H  0.10719853  0.73034337  0.12440067     0.15200
H188        H  0.13798448  0.71436695  0.21655051     0.15800
C189        C  0.17808750  0.97444896  0.13748114    -0.13800
C190        C  0.19458041  0.98982422  0.16846862    -0.29000
H191        H  0.16360906  0.99299880  0.11453354     0.15200
H192        H  0.20869949  0.97088405  0.19174703     0.15800
C193        C  0.26599540  0.83346145  0.13193395    -0.13800
C194        C  0.24347963  0.82340942  0.16582471    -0.29000
H195        H  0.25883407  0.84382771  0.09811335     0.15200
H196        H  0.25094473  0.81239247  0.03305848     0.15800
O197        O  0.18905877  0.82768671  0.19683624    -0.55200
C198        C  0.09981393  0.89222477  0.23039843     0.77400
O199        O  0.16012228  0.91743170  0.27933131    -0.56400
C200        C  0.20991264  0.83046579  0.32897088     0.77400
C201        C  0.12334789  0.77975272  0.32476071     0.79800
Cd202      Cd  0.14332597  0.85890476  0.32682978     1.37500
O203        O  0.12595621  0.87684624  0.24257658    -0.55200
O204        O  0.14123253  0.78949757  0.35457312    -0.54000
C205        C  0.17222018  0.93274859  0.31120745     0.79800
O206        O  0.11279160  0.80705692  0.29715959    -0.56400
O207        O  0.09169285  0.88425893  0.35840566    -0.54800
O208        O  0.19879364  0.84567433  0.29227526    -0.54800
O209        O  0.17252086  0.91266013  0.34955423    -0.54000
O210        O  0.32509143  0.83490733  0.27955514    -0.55200
C211        C  0.42473564  0.88814833  0.29524427     0.77400
O212        O  0.35145894  0.89003292  0.22326412    -0.56400
C213        C  0.30198711  0.83342965  0.31026941     0.77400
C214        C  0.37714697  0.77087935  0.20119825     0.79800
Cd215      Cd  0.36567168  0.84916029  0.16291610     1.37500
O216        O  0.40388123  0.87783644  0.26931471    -0.55200
O217        O  0.37761163  0.77944167  0.32736150    -0.54000
C218        C  0.34646543  0.92059877  0.19674306     0.79800
O219        O  0.37788348  0.79912920  0.22536867    -0.56400
O220        O  0.42180753  0.87285027  0.16571918    -0.54800
O221        O  0.30806799  0.84183734  0.18109686    -0.54800
O222        O  0.34922307  0.91768390  0.15446730    -0.54000
C223        C  0.08279646  0.92501680  0.25198924    -0.08200
C224        C  0.09894551  0.96092365  0.24971589    -0.02100
C225        C  0.08245599  0.99614104  0.25712688    -0.08200
C226        C  0.04815755  0.99601735  0.26417886     0.12700
C227        C  0.03130911  0.96013177  0.26681837     0.00000
C228        C  0.04873353  0.92456029  0.26213557     0.12500
C229        C  0.03148964  0.88939004  0.26616375    -0.10000
C230        C  0.49755743  0.88813227  0.27615063    -0.10000
C231        C  0.47950823  0.92293133  0.27789199     0.12500
C232        C  0.49619247  0.95907030  0.27433282     0.00000
C233        C  0.03014916  0.03091487  0.26697027    -0.10100
C234        C  0.49521878  0.02996120  0.27345394    -0.10100
C235        C  0.47833876  0.99485944  0.27474757     0.12700
C236        C  0.44402949  0.99424426  0.27683519    -0.08200
C237        C  0.42820461  0.95851898  0.27989251    -0.02100
C238        C  0.44514037  0.92292134  0.28190953    -0.08200
H239        H  0.04409725  0.86173209  0.26378449     0.10000
H240        H  0.48549248  0.86030179  0.27850771     0.10000
H241        H  0.04222162  0.05868696  0.26534524     0.10200
H242        H  0.48225348  0.05753167  0.27455733     0.10200
H243        H  0.12425180  0.96241794  0.23766389     0.06600
H244        H  0.40185061  0.95837013  0.28283075     0.06600
O245        O  0.11754219  0.04592142  0.27883037    -0.55200
C246        C  0.21311091  0.11550010  0.24815160     0.77400
O247        O  0.16628186  0.04796413  0.32992214    -0.56400
C248        C  0.10171563  0.03267159  0.24851598     0.77400
C249        C  0.12891728  0.16628488  0.19386995     0.79800
Cd250      Cd  0.15234995  0.08987203  0.22239415     1.37500
O251        O  0.19141408  0.10315804  0.27846490    -0.55200
O252        O  0.12830984  0.15341209  0.23569732    -0.54000
C253        C  0.18462998  0.02792173  0.18254020     0.79800
O254        O  0.13725158  0.14243816  0.16522872    -0.56400
O255        O  0.20541311  0.11909522  0.20721627    -0.54800
O256        O  0.10561076  0.05002212  0.20875148    -0.54800
O257        O  0.19346364  0.03830570  0.21938643    -0.54000
O258        O  0.30960615  0.06868411  0.31659046    -0.55200
C259        C  0.42245140  0.02886823  0.27869695     0.77400
O260        O  0.36273341  0.05733150  0.19908448    -0.56400
C261        C  0.29649071  0.09545535  0.29102204     0.77400
C262        C  0.38277996  0.15894820  0.26985059     0.79800
Cd263      Cd  0.36473799  0.07797612  0.27957391     1.37500
O264        O  0.40624505  0.03516098  0.14713250    -0.55200
O265        O  0.38870955  0.13620684  0.30476844    -0.54800
C266        C  0.34773034  0.02738048  0.21515964     0.79800
O267        O  0.37139881  0.14364038  0.23757549    -0.56400
O268        O  0.41620490  0.05122523  0.24344968    -0.54800
O269        O  0.31522885  0.11567683  0.26258590    -0.54800
O270        O  0.33601246  0.02608652  0.25578016    -0.54000
O271        O  0.14309616  0.55977255  0.26830820    -0.55200
C272        C  0.04659794  0.61099903  0.29041534     0.77400
O273        O  0.09287758  0.54372835  0.22927663    -0.56400
C274        C  0.16231916  0.54367392  0.29647442     0.77400
C275        C  0.12286331  0.66692996  0.17782813     0.79800
Cd276      Cd  0.10790395  0.59040165  0.32587150     1.37500
O277        O  0.07172253  0.60754850  0.26391981    -0.55200
O278        O  0.12088360  0.65834009  0.30294543    -0.54000
C279        C  0.07880896  0.52012398  0.20737892     0.79800
O280        O  0.12086738  0.63970900  0.21031162    -0.56400
O281        O  0.04806340  0.60491835  0.16700782    -0.54800
O282        O  0.15904158  0.55560706  0.16835002    -0.54800
O283        O  0.07514583  0.53069920  0.16577535    -0.54000
O284        O  0.35976306  0.54159593  0.31502447    -0.55200
C285        C  0.45299388  0.60616191  0.28670864     0.77400
O286        O  0.41030313  0.53748774  0.19672943    -0.56400
C287        C  0.33997664  0.53204859  0.28718868     0.77400
C288        C  0.37601056  0.65901815  0.21875841     0.79800
Cd289      Cd  0.39405322  0.58177725  0.25495127     1.37500
O290        O  0.42772072  0.60154624  0.31354033    -0.55200
O291        O  0.37844455  0.64998365  0.26101245    -0.54000
C292        C  0.42915017  0.51721930  0.22234860     0.79800
O293        O  0.37867173  0.63142842  0.19356133    -0.56400
O294        O  0.45005759  0.60172208  0.24524049    -0.54800
O295        O  0.34223554  0.55007605  0.24765173    -0.54800
O296        O  0.43284432  0.52839038  0.26084238    -0.54000
C297        C  0.17970773  0.43795532  0.28314629    -0.08200
C298        C  0.16449898  0.47473178  0.28305925    -0.02100
C299        C  0.18193039  0.50865241  0.28685115    -0.08200
C300        C  0.21598741  0.50614100  0.28920874     0.12700
C301        C  0.23206311  0.46936717  0.28761124     0.00000
C302        C  0.21391911  0.43521908  0.28426589     0.12500
C303        C  0.23044609  0.39934616  0.28203031    -0.10000
C304        C  0.26417352  0.39680144  0.28374886    -0.10000
C305        C  0.28242718  0.42988642  0.28883038     0.12500
C306        C  0.26627600  0.46657695  0.29065989     0.00000
C307        C  0.23436401  0.53942781  0.29277813    -0.10100
C308        C  0.26799224  0.53679798  0.29491751    -0.10100
C309        C  0.28436258  0.50070260  0.29425527     0.12700
C310        C  0.31839418  0.49786743  0.29715000    -0.08200
C311        C  0.33358036  0.46104463  0.29825165    -0.02100
C312        C  0.31640005  0.42732940  0.29257638    -0.08200
H313        H  0.21734266  0.37302358  0.27854974     0.10000
H314        H  0.27581635  0.36849530  0.28203401     0.10000
H315        H  0.22284971  0.56789456  0.29356368     0.10200
H316        H  0.28108820  0.56323287  0.29785984     0.10200
H317        H  0.13816184  0.47647929  0.28443684     0.06600
H318        H  0.35987118  0.45925269  0.29833642     0.06600
O319        O  0.06821538  0.33663328  0.26590008    -0.55200
C320        C  0.15804528  0.40380129  0.29308729     0.77400
O321        O  0.08713658  0.39993477  0.21622057    -0.56400
C322        C  0.04333541  0.33136903  0.29340219     0.77400
C323        C  0.11990741  0.27752507  0.18868463     0.79800
Cd324      Cd  0.10197307  0.35580839  0.15688084     1.37500
O325        O  0.13866851  0.39402243  0.26482296    -0.55200
O326        O  0.11927456  0.28799323  0.31370557    -0.54000
C327        C  0.06795167  0.42048919  0.19140856     0.79800
O328        O  0.11549490  0.30328582  0.21616306    -0.56400
O329        O  0.15583493  0.38433899  0.16312027    -0.54800
O330        O  0.04637722  0.33519286  0.16702575    -0.54800
O331        O  0.06334690  0.40940532  0.15315198    -0.54000
O332        O  0.35465009  0.37869772  0.14530050    -0.55200
C333        C  0.45306822  0.32922486  0.29023119     0.77400
O334        O  0.38156388  0.29491387  0.20589163    -0.56400
C335        C  0.33645963  0.39287642  0.28223863     0.77400
C336        C  0.41912251  0.41781603  0.20660761     0.79800
Cd337      Cd  0.39205496  0.34805726  0.25334320     1.37500
O338        O  0.42791871  0.33431569  0.14973950    -0.55200
O339        O  0.42327443  0.40693658  0.24800865    -0.54000
C340        C  0.37854388  0.26942780  0.24014203     0.79800
O341        O  0.40431449  0.39468785  0.18501969    -0.56400
O342        O  0.44920636  0.32895472  0.24819027    -0.54800
O343        O  0.33952178  0.38283897  0.24228748    -0.54800
O344        O  0.37824708  0.28151591  0.27902784    -0.54000
C345        C  0.01131352  0.32384698  0.27727373    -0.13800
C346        C  0.48537814  0.32519927  0.30849759    -0.29000
H347        H  0.00970708  0.32152588  0.24132339     0.15200
H348        H  0.48670094  0.32543206  0.17767828     0.15800
C349        C  0.44365611  0.47997403  0.21142331    -0.13800
C350        C  0.42765037  0.45740835  0.18659750    -0.29000
H351        H  0.45944336  0.46601035  0.23655440     0.15200
H352        H  0.41229352  0.47066559  0.16063842     0.15800
C353        C  0.07054154  0.48036353  0.22725094    -0.13800
C354        C  0.05406631  0.45797939  0.20272989    -0.29000
H355        H  0.08617633  0.46693403  0.25275752     0.15200
H356        H  0.03802497  0.47217610  0.17807955     0.15800
C357        C  0.01412744  0.61673118  0.27263505    -0.13800
C358        C  0.48479436  0.61332635  0.30372586    -0.29000
H359        H  0.01244959  0.61833913  0.23627240     0.15200
H360        H  0.48615532  0.61398378  0.33994288     0.15800
C361        C  0.37646340  0.22738398  0.23574826    -0.13800
C362        C  0.38737613  0.20123605  0.26856852    -0.29000
H363        H  0.36634895  0.21790799  0.20580270     0.15200
H364        H  0.39831872  0.21143463  0.29753654     0.15800
C365        C  0.12132064  0.20739338  0.17877171    -0.13800
C366        C  0.12576188  0.23618106  0.20496586    -0.29000
H367        H  0.11363850  0.21435098  0.14458369     0.15200
H368        H  0.13370643  0.22926977  0.23909908     0.15800
C369        C  0.24675469  0.12239097  0.25838049    -0.13800
C370        C  0.26091062  0.10042846  0.29202077    -0.29000
H371        H  0.26169225  0.13972224  0.23248911     0.15200
H372        H  0.24636828  0.08087264  0.31604011     0.15800
C373        C  0.37159592  0.69984627  0.19928003    -0.13800
C374        C  0.37948332  0.73002486  0.22160845    -0.29000
H375        H  0.36369889  0.70511296  0.16492326     0.15200
H376        H  0.38766830  0.72470236  0.25579058     0.15800
C377        C  0.33892290  0.95779535  0.21484983    -0.13800
C378        C  0.34687335  0.99215546  0.19124362    -0.29000
H379        H  0.33051938  0.95653890  0.25042570     0.15200
H380        H  0.35621190  0.99156996  0.32496941     0.15800
C381        C  0.11636940  0.73851477  0.32088457    -0.13800
C382        C  0.12716627  0.70920150  0.35016893    -0.29000
H383        H  0.10323119  0.73196737  0.29204039     0.15200
H384        H  0.13911490  0.71540926  0.38013176     0.15800
C385        C  0.18190937  0.97352110  0.30541966    -0.13800
C386        C  0.19689969  0.98843497  0.33819079    -0.29000
H387        H  0.16892241  0.99244714  0.28095995     0.15200
H388        H  0.20970531  0.96910846  0.36271898     0.15800
C389        C  0.26766944  0.83036170  0.29988897    -0.13800
C390        C  0.24464695  0.82085806  0.33334276    -0.29000
H391        H  0.26091527  0.84068406  0.26586426     0.15200
H392        H  0.25115855  0.81245236  0.19923800     0.15800
O393        O  0.18992677  0.82604864  0.36330989    -0.55200
C394        C  0.10046025  0.89156303  0.39681582     0.77400
O395        O  0.15965303  0.91630357  0.44703420    -0.56400
C396        C  0.21114271  0.83211064  0.49519027     0.77400
C397        C  0.12767417  0.77716694  0.48932303     0.79800
Cd398      Cd  0.14394128  0.85735227  0.49322472     1.37500
O399        O  0.12640500  0.87574949  0.40920972    -0.55200
O400        O  0.14179262  0.78795352  0.52236952    -0.54000
C401        C  0.17218492  0.93109320  0.47892370     0.79800
O402        O  0.11911044  0.80375935  0.45934754    -0.56400
O403        O  0.09125685  0.88117559  0.52443633    -0.54800
O404        O  0.19978973  0.84748946  0.45875349    -0.54800
O405        O  0.17321272  0.91044779  0.51682879    -0.54000
O406        O  0.32634547  0.83337910  0.44509563    -0.55200
C407        C  0.42643283  0.88822336  0.46189421     0.77400
O408        O  0.35206623  0.88950162  0.39237552    -0.56400
C409        C  0.30316913  0.83513636  0.47531513     0.77400
C410        C  0.38065176  0.77070524  0.36957954     0.79800
Cd411      Cd  0.36687563  0.84837275  0.33240794     1.37500
O412        O  0.40596570  0.87807632  0.43528885    -0.55200
O413        O  0.37930681  0.77931463  0.49295628    -0.54000
C414        C  0.34618691  0.91959446  0.36559854     0.79800
O415        O  0.38030589  0.79866863  0.39429688    -0.56400
O416        O  0.42239266  0.87313238  0.33626288    -0.54800
O417        O  0.30943571  0.83713112  0.35034633    -0.54800
O418        O  0.34883212  0.91628944  0.32341144    -0.54000
C419        C  0.08343282  0.92407387  0.41882704    -0.08200
C420        C  0.09964032  0.95992348  0.41629858    -0.02100
C421        C  0.08330737  0.99512638  0.42390195    -0.08200
C422        C  0.04910197  0.99519071  0.43118159     0.12700
C423        C  0.03208927  0.95944922  0.43364631     0.00000
C424        C  0.04934860  0.92375336  0.42907467     0.12500
C425        C  0.03190733  0.88871414  0.43330968    -0.10000
C426        C  0.49916666  0.88760456  0.44459913    -0.10000
C427        C  0.48133000  0.92265555  0.44545940     0.12500
C428        C  0.49819947  0.95868896  0.44125874     0.00000
C429        C  0.03136763  0.03022166  0.43421577    -0.10100
C430        C  0.49773760  0.02965076  0.43932029    -0.10100
C431        C  0.48055185  0.99468758  0.44137166     0.12700
C432        C  0.44616656  0.99437936  0.44371835    -0.08200
C433        C  0.43022434  0.95869688  0.44698246    -0.02100
C434        C  0.44699116  0.92295326  0.44926923    -0.08200
H435        H  0.04441968  0.86096624  0.43117454     0.10000
H436        H  0.48696710  0.85981823  0.44790588     0.10000
H437        H  0.04359738  0.05787220  0.43283514     0.10200
H438        H  0.48495708  0.05737706  0.43997032     0.10200
H439        H  0.12489216  0.96138989  0.40391449     0.06600
H440        H  0.40388107  0.95869151  0.44963769     0.06600
O441        O  0.11690702  0.04622683  0.44574257    -0.55200
C442        C  0.21357154  0.11375493  0.41533359     0.77400
O443        O  0.16694336  0.04640207  0.49764974    -0.56400
C444        C  0.10253035  0.03154951  0.41497917     0.77400
C445        C  0.12992348  0.16528270  0.36097830     0.79800
Cd446      Cd  0.15290793  0.08856607  0.38970901     1.37500
O447        O  0.19177762  0.10170972  0.44567147    -0.55200
O448        O  0.12990492  0.15265314  0.40284000    -0.54000
C449        C  0.18620895  0.02631212  0.35209565     0.79800
O450        O  0.13730504  0.14105735  0.33239721    -0.56400
O451        O  0.20604960  0.11703394  0.37429643    -0.54800
O452        O  0.10768939  0.04748131  0.37474422    -0.54800
O453        O  0.19360408  0.03643761  0.38979417    -0.54000
O454        O  0.31031921  0.06740631  0.48385192    -0.55200
C455        C  0.42456288  0.02921721  0.44505556     0.77400
O456        O  0.36214376  0.05638656  0.36650965    -0.56400
C457        C  0.29698196  0.09411093  0.45840693     0.77400
C458        C  0.38254459  0.15883661  0.43684658     0.79800
Cd459      Cd  0.36573806  0.07750869  0.44645945     1.37500
O460        O  0.40534952  0.03362210  0.31471176    -0.55200
O461        O  0.38448835  0.13714476  0.47370789    -0.54800
C462        C  0.34755447  0.02630081  0.38341497     0.79800
O463        O  0.37548954  0.14242995  0.40273537    -0.56400
O464        O  0.41604380  0.04899283  0.40914103    -0.54800
O465        O  0.31560801  0.11454799  0.43004405    -0.54800
O466        O  0.33699823  0.02483945  0.42463204    -0.54000
O467        O  0.14579595  0.56187837  0.43655518    -0.55200
C468        C  0.04669050  0.61071027  0.45697130     0.77400
O469        O  0.09780986  0.54313878  0.39419267    -0.56400
C470        C  0.16183638  0.54183640  0.46605216     0.77400
C471        C  0.12276592  0.66812426  0.34264115     0.79800
Cd472      Cd  0.10712757  0.58871403  0.49391144     1.37500
O473        O  0.07146747  0.60338048  0.43135852    -0.55200
O474        O  0.12281219  0.65543096  0.47041581    -0.54000
C475        C  0.08151067  0.52062871  0.37365618     0.79800
O476        O  0.12051038  0.64105636  0.37530399    -0.56400
O477        O  0.05048566  0.60686614  0.33275506    -0.54800
O478        O  0.16050132  0.55532701  0.33565361    -0.54800
O479        O  0.07509410  0.53253388  0.33329411    -0.54000
O480        O  0.35940171  0.54195205  0.48248529    -0.55200
C481        C  0.45395004  0.60586984  0.45460672     0.77400
O482        O  0.41192882  0.53766210  0.36432997    -0.56400
C483        C  0.33977329  0.53249570  0.45442270     0.77400
C484        C  0.37867170  0.65903097  0.38649107     0.79800
Cd485      Cd  0.39482471  0.58140189  0.42291041     1.37500
O486        O  0.42873846  0.60107113  0.48156223    -0.55200
O487        O  0.38130984  0.65005905  0.42869417    -0.54000
C488        C  0.42974974  0.51658626  0.39068033     0.79800
O489        O  0.37979470  0.63123798  0.36158438    -0.56400
O490        O  0.45096118  0.60126057  0.41321870    -0.54800
O491        O  0.34239736  0.55051433  0.41488756    -0.54800
O492        O  0.43248317  0.52703126  0.42976925    -0.54000
C493        C  0.17995600  0.43671562  0.45207294    -0.08200
C494        C  0.16450091  0.47332632  0.45174559    -0.02100
C495        C  0.18169207  0.50741819  0.45523102    -0.08200
C496        C  0.21576852  0.50530392  0.45732521     0.12700
C497        C  0.23206421  0.46862426  0.45616860     0.00000
C498        C  0.21410255  0.43420119  0.45365433     0.12500
C499        C  0.23070673  0.39823661  0.45297373    -0.10000
C500        C  0.26442814  0.39599857  0.45451190    -0.10000
C501        C  0.28259523  0.42951700  0.45784823     0.12500
C502        C  0.26628789  0.46618498  0.45903356     0.00000
C503        C  0.23390248  0.53879560  0.46077779    -0.10100
C504        C  0.26757566  0.53652323  0.46267884    -0.10100
C505        C  0.28420539  0.50059089  0.46192509     0.12700
C506        C  0.31831613  0.49812448  0.46414325    -0.08200
C507        C  0.33373663  0.46142782  0.46500625    -0.02100
C508        C  0.31665162  0.42738594  0.46051164    -0.08200
H509        H  0.21769841  0.37159939  0.45072170     0.10000
H510        H  0.27616684  0.36764507  0.45383720     0.10000
H511        H  0.22214554  0.56712767  0.46162010     0.10200
H512        H  0.28052069  0.56311094  0.46539446     0.10200
H513        H  0.13817568  0.47481426  0.45337852     0.06600
H514        H  0.36005648  0.45990161  0.46432590     0.06600
O515        O  0.06981902  0.33494686  0.43173727    -0.55200
C516        C  0.15853958  0.40245459  0.46157546     0.77400
O517        O  0.08832375  0.39919452  0.38351100    -0.56400
C518        C  0.04515348  0.32869682  0.45949184     0.77400
C519        C  0.12204981  0.27672122  0.35540383     0.79800
Cd520      Cd  0.10303584  0.35492669  0.32433047     1.37500
O521        O  0.14048476  0.39165834  0.43224034    -0.55200
O522        O  0.12232153  0.28707789  0.47992927    -0.54000
C523        C  0.06978201  0.42036377  0.35829365     0.79800
O524        O  0.11850578  0.30251037  0.38297493    -0.56400
O525        O  0.15490323  0.38647389  0.33294470    -0.54800
O526        O  0.04689458  0.33517304  0.33489194    -0.54800
O527        O  0.06518923  0.40941617  0.31992717    -0.54000
O528        O  0.35513293  0.37608641  0.31072521    -0.55200
C529        C  0.45354165  0.32895914  0.45612438     0.77400
O530        O  0.38087498  0.29521826  0.37256680    -0.56400
C531        C  0.33672399  0.39293851  0.45010621     0.77400
C532        C  0.41935993  0.41743559  0.37401648     0.79800
Cd533      Cd  0.39215533  0.34792205  0.42056382     1.37500
O534        O  0.42804461  0.33570116  0.31573770    -0.55200
O535        O  0.42475287  0.40558183  0.41478237    -0.54000
C536        C  0.37931855  0.26933259  0.40656014     0.79800
O537        O  0.40313003  0.39532271  0.35286841    -0.56400
O538        O  0.44961167  0.33068682  0.41387251    -0.54800
O539        O  0.33964984  0.38287554  0.41016699    -0.54800
O540        O  0.38030688  0.28101689  0.44551258    -0.54000
C541        C  0.01304607  0.32167659  0.44350133    -0.13800
C542        C  0.48589639  0.32440285  0.47413079    -0.29000
H543        H  0.01106746  0.32104157  0.40737460     0.15200
H544        H  0.48730468  0.33209217  0.34296314     0.15800
C545        C  0.44413100  0.47930036  0.37971372    -0.13800
C546        C  0.42814929  0.45706732  0.35445526    -0.29000
H547        H  0.45961732  0.46506731  0.40507553     0.15200
H548        H  0.41298582  0.47065960  0.32843490     0.15800
C549        C  0.07383420  0.48056718  0.39318981    -0.13800
C550        C  0.05666259  0.45830747  0.36935470    -0.29000
H551        H  0.08999767  0.46694237  0.41783437     0.15200
H552        H  0.04031717  0.47256212  0.34518367     0.15800
C553        C  0.01435704  0.61574687  0.43882220    -0.13800
C554        C  0.48574797  0.61347741  0.47137361    -0.29000
H555        H  0.01269943  0.61269122  0.40312416     0.15200
H556        H  0.48740603  0.61188874  0.50766769     0.15800
C557        C  0.37728750  0.22728399  0.40184970    -0.13800
C558        C  0.38718246  0.20109727  0.43534154    -0.29000
H559        H  0.36775009  0.21785956  0.37151662     0.15200
H560        H  0.39715032  0.21127401  0.46498992     0.15800
C561        C  0.12258551  0.20648266  0.34589162    -0.13800
C562        C  0.12857941  0.23543206  0.37114309    -0.29000
H563        H  0.11340782  0.21332858  0.31230748     0.15200
H564        H  0.13836312  0.22862985  0.40443173     0.15800
C565        C  0.24713840  0.12076336  0.42572422    -0.13800
C566        C  0.26133973  0.09880328  0.45933744    -0.29000
H567        H  0.26204266  0.13824650  0.39991579     0.15200
H568        H  0.24683835  0.07906334  0.48322138     0.15800
C569        C  0.37551880  0.69992605  0.36681658    -0.13800
C570        C  0.38358851  0.72982802  0.38942661    -0.29000
H571        H  0.36770784  0.70545561  0.33243944     0.15200
H572        H  0.39152518  0.72428636  0.42375221     0.15800
C573        C  0.33800623  0.95680822  0.38329028    -0.13800
C574        C  0.34603672  0.99108724  0.35957874    -0.29000
H575        H  0.32946818  0.95569995  0.41881772     0.15200
H576        H  0.36129522  0.99135424  0.49171944     0.15800
C577        C  0.12222096  0.73569637  0.48485955    -0.13800
C578        C  0.12998824  0.70673616  0.51674309    -0.29000
H579        H  0.11180546  0.72877334  0.45399321     0.15200
H580        H  0.13900561  0.71336026  0.54865667     0.15800
C581        C  0.18156680  0.97186082  0.47363813    -0.13800
C582        C  0.19706237  0.98658734  0.50603551    -0.29000
H583        H  0.16818905  0.99084622  0.44970783     0.15200
H584        H  0.21003277  0.96720235  0.53032112     0.15800
C585        C  0.26877064  0.83250416  0.46536816    -0.13800
C586        C  0.24602414  0.82376275  0.49938694    -0.29000
H587        H  0.26184364  0.84180504  0.43115313     0.15200
H588        H  0.25185620  0.80993950  0.36701372     0.15800
O589        O  0.19117443  0.82617343  0.52939255    -0.55200
C590        C  0.10008966  0.88944471  0.56246534     0.77400
O591        O  0.15795146  0.91804366  0.61321895    -0.56400
C592        C  0.20997118  0.83199546  0.66105567     0.77400
C593        C  0.12436323  0.77905360  0.65817064     0.79800
Cd594      Cd  0.14311001  0.85871439  0.65967924     1.37500
O595        O  0.12621296  0.87434034  0.57502570    -0.55200
O596        O  0.14089272  0.78942603  0.68916071    -0.54000
C597        C  0.17104521  0.93291078  0.64457950     0.79800
O598        O  0.11463410  0.80588166  0.62930761    -0.56400
O599        O  0.09091025  0.88420724  0.69054554    -0.54800
O600        O  0.19830255  0.84610613  0.62428418    -0.54800
O601        O  0.17331667  0.91195205  0.68203670    -0.54000
O602        O  0.32503032  0.83643465  0.61052891    -0.55200
C603        C  0.42625043  0.88840342  0.62907956     0.77400
O604        O  0.35337028  0.88941737  0.55732571    -0.56400
C605        C  0.30206844  0.83561854  0.64138169     0.77400
C606        C  0.38111984  0.77070502  0.53543641     0.79800
Cd607      Cd  0.36832713  0.84843577  0.49741416     1.37500
O608        O  0.40615477  0.87844335  0.60182086    -0.55200
O609        O  0.37864815  0.78002402  0.65902652    -0.54000
C610        C  0.34844994  0.91989521  0.53072372     0.79800
O611        O  0.37992127  0.79875580  0.56006900    -0.56400
O612        O  0.42367559  0.87291327  0.50278569    -0.54800
O613        O  0.31067697  0.84130362  0.51461427    -0.54800
O614        O  0.35177422  0.91694473  0.48846436    -0.54000
C615        C  0.08333554  0.92249656  0.58365990    -0.08200
C616        C  0.09954942  0.95841218  0.57920747    -0.02100
C617        C  0.08393192  0.99341403  0.58922884    -0.08200
C618        C  0.05005698  0.99343247  0.59989930     0.12700
C619        C  0.03281222  0.95779352  0.60293159     0.00000
C620        C  0.04964259  0.92208544  0.59674561     0.12500
C621        C  0.03208342  0.88710189  0.60217361    -0.10000
C622        C  0.49897974  0.88736773  0.61009150    -0.10000
C623        C  0.48141661  0.92245918  0.61237152     0.12500
C624        C  0.49854758  0.95832189  0.60856314     0.00000
C625        C  0.03270425  0.02842168  0.60493141    -0.10100
C626        C  0.49860789  0.02923684  0.60765314    -0.10100
C627        C  0.48122904  0.99442799  0.60957802     0.12700
C628        C  0.44693651  0.99441893  0.61300112    -0.08200
C629        C  0.43065442  0.95893003  0.61643526    -0.02100
C630        C  0.44709296  0.92303790  0.61719868    -0.08200
H631        H  0.04433730  0.85933349  0.59901535     0.10000
H632        H  0.48658607  0.85972804  0.61288924     0.10000
H633        H  0.04515083  0.05592466  0.60355947     0.10200
H634        H  0.48607609  0.05702938  0.60913480     0.10200
H635        H  0.12430131  0.95988894  0.56460550     0.06600
H636        H  0.40433485  0.95922913  0.61978927     0.06600
O637        O  0.11477064  0.04676578  0.61176918    -0.55200
C638        C  0.21342576  0.10782672  0.59300492     0.77400
O639        O  0.16129401  0.04675079  0.66618430    -0.56400
C640        C  0.10333566  0.02970803  0.58040691     0.77400
C641        C  0.13314051  0.16426397  0.52636724     0.79800
Cd642      Cd  0.15422235  0.08712849  0.55739947     1.37500
O643        O  0.18780352  0.10222579  0.61876295    -0.55200
O644        O  0.13110119  0.15148274  0.56815875    -0.54000
C645        C  0.18707934  0.02479877  0.51953349     0.79800
O646        O  0.14208894  0.14014647  0.49834562    -0.56400
O647        O  0.21072908  0.10736118  0.55065528    -0.54800
O648        O  0.11163267  0.04321898  0.54012048    -0.54800
O649        O  0.19523771  0.03529422  0.55670056    -0.54000
O650        O  0.31038517  0.08616126  0.63243372    -0.55200
C651        C  0.42581776  0.02954750  0.61432248     0.77400
O652        O  0.36649108  0.05587228  0.53243542    -0.56400
C653        C  0.30474975  0.10909340  0.59709268     0.77400
C654        C  0.38780564  0.15935496  0.60698421     0.79800
Cd655      Cd  0.36881946  0.07969720  0.61056061     1.37500
O656        O  0.40926220  0.03624755  0.48176365    -0.55200
O657        O  0.38398307  0.13789447  0.64421429    -0.54800
C658        C  0.35119021  0.02645508  0.54930371     0.79800
O659        O  0.38729476  0.14276448  0.57103735    -0.56400
O660        O  0.42294346  0.05451502  0.58006917    -0.54800
O661        O  0.32885876  0.11992184  0.57049836    -0.54800
O662        O  0.33925684  0.02623956  0.58981096    -0.54000
O663        O  0.14219035  0.56100828  0.60034722    -0.55200
C664        C  0.04612378  0.60990751  0.62397504     0.77400
O665        O  0.09235680  0.54165080  0.56142554    -0.56400
C666        C  0.16159434  0.54396642  0.62760775     0.77400
C667        C  0.12479398  0.66561456  0.50992380     0.79800
Cd668      Cd  0.10717915  0.58975784  0.65985840     1.37500
O669        O  0.07128555  0.60549262  0.59784051    -0.55200
O670        O  0.11855253  0.65806323  0.63791255    -0.54000
C671        C  0.07789524  0.51918570  0.53843884     0.79800
O672        O  0.12140473  0.63904703  0.54303255    -0.56400
O673        O  0.05070202  0.61064356  0.49904464    -0.54800
O674        O  0.15647043  0.54894544  0.50687965    -0.54800
O675        O  0.07454246  0.53103150  0.49705175    -0.54000
O676        O  0.36021197  0.54091596  0.64746429    -0.55200
C677        C  0.45395169  0.60565124  0.62006435     0.77400
O678        O  0.41130670  0.53700981  0.52945150    -0.56400
C679        C  0.33955808  0.53313672  0.61995047     0.77400
C680        C  0.37905407  0.65900131  0.55276072     0.79800
Cd681      Cd  0.39507028  0.58105722  0.58834665     1.37500
O682        O  0.42902030  0.59975221  0.64733719    -0.55200
O683        O  0.38254781  0.64997750  0.59476162    -0.54000
C684        C  0.42997742  0.51636495  0.55488913     0.79800
O685        O  0.37956782  0.63122949  0.52784350    -0.56400
O686        O  0.45074343  0.60190201  0.57850621    -0.54800
O687        O  0.34147303  0.55248112  0.58112167    -0.54800
O688        O  0.43342972  0.52702175  0.59368441    -0.54000
C689        C  0.17947833  0.43871464  0.61316243    -0.08200
C690        C  0.16422988  0.47559263  0.61148537    -0.02100
C691        C  0.18143671  0.50951294  0.61615676    -0.08200
C692        C  0.21547110  0.50702205  0.61913894     0.12700
C693        C  0.23164884  0.47020236  0.61847316     0.00000
C694        C  0.21359589  0.43593261  0.61569422     0.12500
C695        C  0.23010108  0.39981915  0.61562030    -0.10000
C696        C  0.26377131  0.39725098  0.61837942    -0.10000
C697        C  0.28203012  0.43059854  0.62219974     0.12500
C698        C  0.26581882  0.46746627  0.62236786     0.00000
C699        C  0.23372241  0.54040401  0.62261732    -0.10100
C700        C  0.26732762  0.53789165  0.62521459    -0.10100
C701        C  0.28378852  0.50178431  0.62543816     0.12700
C702        C  0.31775241  0.49904830  0.62921643    -0.08200
C703        C  0.33295678  0.46218383  0.63173263    -0.02100
C704        C  0.31601485  0.42816513  0.62659681    -0.08200
H705        H  0.21704278  0.37329508  0.61295917     0.10000
H706        H  0.27537596  0.36877687  0.61835023     0.10000
H707        H  0.22213044  0.56887819  0.62280223     0.10200
H708        H  0.28032395  0.56443745  0.62794262     0.10200
H709        H  0.13790252  0.47731622  0.61194033     0.06600
H710        H  0.35920886  0.46049453  0.63263185     0.06600
O711        O  0.06974137  0.33576584  0.59889191    -0.55200
C712        C  0.15785787  0.40466089  0.62406046     0.77400
O713        O  0.08584010  0.39830986  0.54746460    -0.56400
C714        C  0.04476200  0.33155288  0.62640938     0.77400
C715        C  0.12310555  0.27543614  0.52191616     0.79800
Cd716      Cd  0.10387299  0.35334382  0.49041915     1.37500
O717        O  0.13774221  0.39506359  0.59672885    -0.55200
O718        O  0.12103889  0.28867731  0.64784538    -0.54000
C719        C  0.06856564  0.41925517  0.52020113     0.79800
O720        O  0.11773775  0.30086531  0.54965929    -0.56400
O721        O  0.15435729  0.38592440  0.50172643    -0.54800
O722        O  0.04883399  0.33143316  0.50120449    -0.54800
O723        O  0.06639317  0.40823441  0.48121268    -0.54000
O724        O  0.35547315  0.37611786  0.47846765    -0.55200
C725        C  0.45395857  0.32755427  0.62410426     0.77400
O726        O  0.38277507  0.29479885  0.54132045    -0.56400
C727        C  0.33653433  0.39353384  0.61752458     0.77400
C728        C  0.42000483  0.41703961  0.53984864     0.79800
Cd729      Cd  0.39272921  0.34834321  0.58854290     1.37500
O730        O  0.42850106  0.33386542  0.48228476    -0.55200
O731        O  0.42531745  0.40625918  0.58092661    -0.54000
C732        C  0.38140855  0.26936798  0.57578205     0.79800
O733        O  0.40410770  0.39406265  0.51943183    -0.56400
O734        O  0.45010596  0.33096765  0.58178060    -0.54800
O735        O  0.33866767  0.38111623  0.57871164    -0.54800
O736        O  0.38099185  0.28172770  0.61451963    -0.54000
C737        C  0.01259895  0.32511274  0.61047819    -0.13800
C738        C  0.48629067  0.32158482  0.64195847    -0.29000
H739        H  0.01065758  0.32424487  0.57447322     0.15200
H740        H  0.48766960  0.32893575  0.50946762     0.15800
C741        C  0.44465788  0.47935794  0.54331172    -0.13800
C742        C  0.42835156  0.45651393  0.51914947    -0.29000
H743        H  0.46091463  0.46558579  0.56793351     0.15200
H744        H  0.41248770  0.46957673  0.49373057     0.15800
C745        C  0.06914212  0.47912141  0.55674544    -0.13800
C746        C  0.05422535  0.45696796  0.53011199    -0.29000
H747        H  0.08361867  0.46545720  0.58350980     0.15200
H748        H  0.03951923  0.47130759  0.50388505     0.15800
C749        C  0.01380469  0.61439306  0.60582378    -0.13800
C750        C  0.48571476  0.61361735  0.63655275    -0.29000
H751        H  0.01234121  0.61108115  0.57014113     0.15200
H752        H  0.48744889  0.61263033  0.67287126     0.15800
C753        C  0.38144932  0.22712508  0.57175020    -0.13800
C754        C  0.39080782  0.20173679  0.60641417    -0.29000
H755        H  0.37402548  0.21683501  0.54064672     0.15200
H756        H  0.39802058  0.21247598  0.63740996     0.15800
C757        C  0.12623722  0.20546939  0.51095695    -0.13800
C758        C  0.12931944  0.23408262  0.53786477    -0.29000
H759        H  0.11959983  0.21261281  0.47605595     0.15200
H760        H  0.13607277  0.22691865  0.57269104     0.15800
C761        C  0.24537012  0.11055457  0.61174205    -0.13800
C762        C  0.27174525  0.12033600  0.58445341    -0.29000
H763        H  0.24799921  0.09902283  0.64689841     0.15200
H764        H  0.26900242  0.13265844  0.54954324     0.15800
C765        C  0.37561489  0.69991362  0.53321004    -0.13800
C766        C  0.38379861  0.72988896  0.55561622    -0.29000
H767        H  0.36756776  0.70540531  0.49895465     0.15200
H768        H  0.39182825  0.72447137  0.58988370     0.15800
C769        C  0.34057610  0.95710956  0.54869005    -0.13800
C770        C  0.34996982  0.99111322  0.52573459    -0.29000
H771        H  0.33089906  0.95616533  0.58374575     0.15200
H772        H  0.35765737  0.99313499  0.65701434     0.15800
C773        C  0.11774514  0.73771858  0.65441773    -0.13800
C774        C  0.12713856  0.70846697  0.68491321    -0.29000
H775        H  0.10576602  0.73107365  0.62461823     0.15200
H776        H  0.13799149  0.71475297  0.71570888     0.15800
C777        C  0.17933259  0.97408231  0.63951890    -0.13800
C778        C  0.19455300  0.98938051  0.67182113    -0.29000
H779        H  0.16527321  0.99263576  0.61598169     0.15200
H780        H  0.20845628  0.97057904  0.69553988     0.15800
C781        C  0.26761024  0.83344540  0.63139609    -0.13800
C782        C  0.24484547  0.82317475  0.66492642    -0.29000
H783        H  0.26061788  0.84459387  0.59772739     0.15200
H784        H  0.25352600  0.81350947  0.53309480     0.15800
O785        O  0.19037672  0.82780882  0.69584573    -0.55200
C786        C  0.09954250  0.89238909  0.72870269     0.77400
O787        O  0.15968529  0.91752826  0.77746022    -0.56400
C788        C  0.20843439  0.83190536  0.82902712     0.77400
C789        C  0.12474835  0.77968669  0.82370530     0.79800
Cd790      Cd  0.14238703  0.85966452  0.82591681     1.37500
O791        O  0.12551158  0.87690385  0.74147723    -0.55200
O792        O  0.14284129  0.78985782  0.85303226    -0.54000
C793        C  0.17099300  0.93377128  0.80922395     0.79800
O794        O  0.11302160  0.80677880  0.79691690    -0.56400
O795        O  0.09057852  0.88441025  0.85662967    -0.54800
O796        O  0.19711366  0.84537821  0.79177573    -0.54800
O797        O  0.17075879  0.91448575  0.84808728    -0.54000
O798        O  0.32278338  0.83676672  0.77829197    -0.55200
C799        C  0.42240118  0.89000499  0.79318986     0.77400
O800        O  0.34978827  0.89041992  0.72262842    -0.56400
C801        C  0.29992584  0.83518984  0.80931179     0.77400
C802        C  0.38014946  0.77147260  0.70159206     0.79800
Cd803      Cd  0.36729135  0.84928948  0.66334049     1.37500
O804        O  0.40213362  0.87863796  0.76708874    -0.55200
O805        O  0.37578333  0.78149335  0.82506724    -0.54000
C806        C  0.34657266  0.92126802  0.69592907     0.79800
O807        O  0.37885682  0.79962132  0.72610665    -0.56400
O808        O  0.42268467  0.87323179  0.66997417    -0.54800
O809        O  0.30984387  0.83897555  0.68136526    -0.54800
O810        O  0.35216367  0.91854977  0.65388636    -0.54000
C811        C  0.08209784  0.92503323  0.75028269    -0.08200
C812        C  0.09814429  0.96094991  0.74871705    -0.02100
C813        C  0.08155892  0.99600607  0.75660437    -0.08200
C814        C  0.04729133  0.99590921  0.76291732     0.12700
C815        C  0.03047475  0.96010963  0.76471996     0.00000
C816        C  0.04795403  0.92453848  0.76007676     0.12500
C817        C  0.03068964  0.88939357  0.76412748    -0.10000
C818        C  0.49496598  0.88905019  0.77183157    -0.10000
C819        C  0.47724765  0.92402721  0.77456892     0.12500
C820        C  0.49425192  0.95984487  0.77177947     0.00000
C821        C  0.02932220  0.03083678  0.76564381    -0.10100
C822        C  0.49395628  0.03051206  0.77322415    -0.10100
C823        C  0.47671365  0.99580669  0.77356986     0.12700
C824        C  0.44235476  0.99573919  0.77608086    -0.08200
C825        C  0.42624831  0.96028010  0.77822007    -0.02100
C826        C  0.44289792  0.92450383  0.77922131    -0.08200
H827        H  0.04332801  0.86174038  0.76187683     0.10000
H828        H  0.48260090  0.86144619  0.77369009     0.10000
H829        H  0.04138869  0.05854663  0.76473190     0.10200
H830        H  0.48127538  0.05816023  0.77531145     0.10200
H831        H  0.12348162  0.96262650  0.73688296     0.06600
H832        H  0.39987952  0.96043052  0.78141130     0.06600
O833        O  0.11490943  0.04686341  0.77968853    -0.55200
C834        C  0.21138114  0.11686613  0.74954495     0.77400
O835        O  0.16429490  0.04877272  0.82839457    -0.56400
C836        C  0.10061823  0.03260233  0.74854922     0.77400
C837        C  0.12752101  0.16607235  0.69511702     0.79800
Cd838      Cd  0.15088243  0.08988811  0.72405461     1.37500
O839        O  0.18948226  0.10535258  0.77999375    -0.55200
O840        O  0.12674072  0.15318786  0.73693677    -0.54000
C841        C  0.18367284  0.02722708  0.68571238     0.79800
O842        O  0.13558530  0.14213847  0.66645867    -0.56400
O843        O  0.20411868  0.11858245  0.70848815    -0.54800
O844        O  0.10569906  0.04915770  0.70860018    -0.54800
O845        O  0.19363612  0.03955221  0.72091765    -0.54000
O846        O  0.30788822  0.07169396  0.81772701    -0.55200
C847        C  0.42098212  0.03061842  0.77856568     0.77400
O848        O  0.36054899  0.05893481  0.69799204    -0.56400
C849        C  0.29476844  0.09873503  0.79256770     0.77400
C850        C  0.38179871  0.16036714  0.77021264     0.79800
Cd851      Cd  0.36288861  0.07973879  0.77931019     1.37500
O852        O  0.40593752  0.03250162  0.64808369    -0.55200
O853        O  0.38724730  0.13748145  0.80519110    -0.54800
C854        C  0.34571577  0.02878879  0.71397527     0.79800
O855        O  0.37045079  0.14534028  0.73772685    -0.56400
O856        O  0.41434018  0.05286633  0.74343001    -0.54800
O857        O  0.31345936  0.11872474  0.76381269    -0.54800
O858        O  0.33390936  0.02752978  0.75459218    -0.54000
O859        O  0.14321634  0.56175063  0.76832998    -0.55200
C860        C  0.04602385  0.60937461  0.79103202     0.77400
O861        O  0.09427797  0.54281713  0.72816258    -0.56400
C862        C  0.16173433  0.54450687  0.79672808     0.77400
C863        C  0.12245451  0.66737307  0.67733445     0.79800
Cd864      Cd  0.10713976  0.59029715  0.82666348     1.37500
O865        O  0.07105866  0.60478475  0.76472259    -0.55200
O866        O  0.11981461  0.65819132  0.80315705    -0.54000
C867        C  0.07923789  0.52019124  0.70614206     0.79800
O868        O  0.12185438  0.63985419  0.70954623    -0.56400
O869        O  0.04987576  0.60755206  0.66630728    -0.54800
O870        O  0.15979939  0.55407562  0.66753726    -0.54800
O871        O  0.07512098  0.53170873  0.66491930    -0.54000
O872        O  0.36020822  0.54173093  0.81507620    -0.55200
C873        C  0.45377921  0.60540413  0.78688670     0.77400
O874        O  0.41076539  0.53691254  0.69730242    -0.56400
C875        C  0.33963055  0.53334390  0.78776805     0.77400
C876        C  0.37859989  0.65956423  0.71889682     0.79800
Cd877      Cd  0.39453619  0.58170240  0.75537456     1.37500
O878        O  0.42833101  0.60241927  0.81360331    -0.55200
O879        O  0.38010174  0.65041140  0.76129132    -0.54000
C880        C  0.42945561  0.51669451  0.72318405     0.79800
O881        O  0.38099891  0.63191418  0.69377873    -0.56400
O882        O  0.45093316  0.59919759  0.74595656    -0.54800
O883        O  0.34146728  0.55205913  0.74856821    -0.54800
O884        O  0.43263123  0.52775719  0.76185620    -0.54000
C885        C  0.17935106  0.43904270  0.78396070    -0.08200
C886        C  0.16412382  0.47586379  0.78262153    -0.02100
C887        C  0.18146649  0.50983891  0.78640138    -0.08200
C888        C  0.21549751  0.50744066  0.78912092     0.12700
C889        C  0.23158537  0.47058786  0.78867548     0.00000
C890        C  0.21347486  0.43628853  0.78616837     0.12500
C891        C  0.22993955  0.40018849  0.78587378    -0.10000
C892        C  0.26361422  0.39765713  0.78815653    -0.10000
C893        C  0.28188668  0.43102624  0.79174458     0.12500
C894        C  0.26575729  0.46786913  0.79215364     0.00000
C895        C  0.23383186  0.54089237  0.79202333    -0.10100
C896        C  0.26747240  0.53835991  0.79427309    -0.10100
C897        C  0.28384699  0.50218371  0.79468073     0.12700
C898        C  0.31786493  0.49937239  0.79783247    -0.08200
C899        C  0.33303286  0.46251443  0.80001444    -0.02100
C900        C  0.31588736  0.42862420  0.79522090    -0.08200
H901        H  0.21685866  0.37365562  0.78335199     0.10000
H902        H  0.27523752  0.36920643  0.78785709     0.10000
H903        H  0.22227669  0.56939986  0.79203732     0.10200
H904        H  0.28056696  0.56493134  0.79650694     0.10200
H905        H  0.13778405  0.47760323  0.78345892     0.06600
H906        H  0.35932989  0.46074357  0.80013911     0.06600
O907        O  0.06956971  0.33712600  0.76760998    -0.55200
C908        C  0.15774808  0.40492253  0.79413330     0.77400
O909        O  0.08731044  0.39986661  0.71501910    -0.56400
C910        C  0.04498823  0.33023323  0.79531665     0.77400
C911        C  0.12117324  0.27737495  0.68998166     0.79800
Cd912      Cd  0.10375639  0.35537690  0.65699651     1.37500
O913        O  0.13739735  0.39604005  0.76673211    -0.55200
O914        O  0.12123621  0.28875877  0.81626724    -0.54000
C915        C  0.06916987  0.42064598  0.68879108     0.79800
O916        O  0.11656477  0.30327466  0.71726669    -0.56400
O917        O  0.15580214  0.38697253  0.66383927    -0.54800
O918        O  0.04825526  0.33574738  0.66778830    -0.54800
O919        O  0.06589241  0.40963058  0.65007954    -0.54000
O920        O  0.35665760  0.37918248  0.64542329    -0.55200
C921        C  0.45289320  0.33038837  0.79058668     0.77400
O922        O  0.37939867  0.29676231  0.70767569    -0.56400
C923        C  0.33604165  0.39439456  0.78433877     0.77400
C924        C  0.41986442  0.41776377  0.70822858     0.79800
Cd925      Cd  0.39162648  0.34918692  0.75527861     1.37500
O926        O  0.42894510  0.33212431  0.65048661    -0.55200
O927        O  0.42225168  0.40827360  0.75039055    -0.54000
C928        C  0.37791375  0.27087953  0.74166744     0.79800
O929        O  0.40618920  0.39378403  0.68640548    -0.56400
O930        O  0.44900919  0.33272585  0.74830973    -0.54800
O931        O  0.34030562  0.38612060  0.74374647    -0.54800
O932        O  0.37936912  0.28244984  0.78056654    -0.54000
C933        C  0.01289608  0.32328168  0.77921413    -0.13800
C934        C  0.48526105  0.32592413  0.80842987    -0.29000
H935        H  0.01121254  0.32047359  0.74338527     0.15200
H936        H  0.48806709  0.32420171  0.67767710     0.15800
C937        C  0.44460225  0.47978336  0.71222415    -0.13800
C938        C  0.42908150  0.45685216  0.68730584    -0.29000
H939        H  0.46018624  0.46604616  0.73776159     0.15200
H940        H  0.41414270  0.46976892  0.66065715     0.15800
C941        C  0.07046774  0.48037392  0.72525930    -0.13800
C942        C  0.05495451  0.45818747  0.69936025    -0.29000
H943        H  0.08522194  0.46674981  0.75173403     0.15200
H944        H  0.03978589  0.47249526  0.67366018     0.15800
C945        C  0.01360635  0.61341220  0.77327891    -0.13800
C946        C  0.48565106  0.61296381  0.80336600    -0.29000
H947        H  0.01188404  0.61023761  0.73758456     0.15200
H948        H  0.48720638  0.61396689  0.83937673     0.15800
C949        C  0.37548005  0.22895367  0.73695688    -0.13800
C950        C  0.38691636  0.20251575  0.76908459    -0.29000
H951        H  0.36442552  0.21981055  0.70762103     0.15200
H952        H  0.39845473  0.21233474  0.79772128     0.15800
C953        C  0.12073306  0.20736956  0.68017585    -0.13800
C954        C  0.12581094  0.23587798  0.70649222    -0.29000
H955        H  0.11348970  0.21475971  0.64559650     0.15200
H956        H  0.13325157  0.22859552  0.74095244     0.15800
C957        C  0.24480117  0.12493686  0.75990170    -0.13800
C958        C  0.25917681  0.10393039  0.79404241    -0.29000
H959        H  0.25965609  0.14194309  0.73348074     0.15200
H960        H  0.24478063  0.08443764  0.81847643     0.15800
C961        C  0.37533255  0.70049286  0.69916673    -0.13800
C962        C  0.38249793  0.73062142  0.72203493    -0.29000
H963        H  0.36843539  0.70586656  0.66432721     0.15200
H964        H  0.38950411  0.72529192  0.75683033     0.15800
C965        C  0.33779468  0.95851131  0.71371336    -0.13800
C966        C  0.34600285  0.99300204  0.69058412    -0.29000
H967        H  0.32786438  0.95729774  0.74862445     0.15200
H968        H  0.35508832  0.99429506  0.82363937     0.15800
C969        C  0.11841366  0.73832901  0.81965338    -0.13800
C970        C  0.12865533  0.70904420  0.84943033    -0.29000
H971        H  0.10539220  0.73173893  0.79074269     0.15200
H972        H  0.14035043  0.71527873  0.87959554     0.15800
C973        C  0.18022918  0.97470501  0.80269737    -0.13800
C974        C  0.19608745  0.99002914  0.83438108    -0.29000
H975        H  0.16613329  0.99327849  0.77927522     0.15200
H976        H  0.20996199  0.97098547  0.85788373     0.15800
C977        C  0.26568432  0.83173721  0.79938576    -0.13800
C978        C  0.24301952  0.82223337  0.83319125    -0.29000
H979        H  0.25866370  0.84189071  0.76542156     0.15200
H980        H  0.25234109  0.81176788  0.69830638     0.15800
O981        O  0.18882821  0.82922105  0.86383814    -0.55200
C982        C  0.09908414  0.89203825  0.89507499     0.77400
O983        O  0.15636375  0.91903382  0.94763789    -0.56400
C984        C  0.20870580  0.83239489  0.99558648     0.77400
C985        C  0.12522851  0.77905364  0.98991154     0.79800
Cd986      Cd  0.14211807  0.85928198  0.99332394     1.37500
O987        O  0.12484639  0.87621962  0.90826307    -0.55200
O988        O  0.13823637  0.78992078  0.02384473    -0.54000
C989        C  0.17090841  0.93313738  0.97823445     0.79800
O990        O  0.11789298  0.80557509  0.95910865    -0.56400
O991        O  0.09024489  0.88473745  0.02374231    -0.54800
O992        O  0.19748123  0.84777422  0.95906462    -0.54800
O993        O  0.17391347  0.91170356  0.01523210    -0.54000
O994        O  0.32331782  0.83490526  0.94408357    -0.55200
C995        C  0.42272235  0.88955817  0.95977557     0.77400
O996        O  0.34794488  0.89146944  0.88977807    -0.56400
C997        C  0.30033325  0.83460715  0.97488518     0.77400
C998        C  0.37885579  0.77270730  0.86726251     0.79800
Cd999      Cd  0.36463269  0.85044958  0.83042579     1.37500
O1000       O  0.40122987  0.88081353  0.93390944    -0.55200
O1001       O  0.37679307  0.78076486  0.99175657    -0.54000
C1002       C  0.34373189  0.92204003  0.86296636     0.79800
O1003       O  0.37840368  0.80065254  0.89203303    -0.56400
O1004       O  0.41940061  0.87633694  0.83468092    -0.54800
O1005       O  0.30755452  0.83904635  0.84926084    -0.54800
O1006       O  0.34811653  0.91916154  0.82078234    -0.54000
C1007       C  0.08200432  0.92482585  0.91632075    -0.08200
C1008       C  0.09810404  0.96075076  0.91330800    -0.02100
C1009       C  0.08187259  0.99573409  0.92203227    -0.08200
C1010       C  0.04769831  0.99569352  0.92992526     0.12700
C1011       C  0.03074745  0.95994048  0.93219512     0.00000
C1012       C  0.04802995  0.92433262  0.92713211     0.12500
C1013       C  0.03074803  0.88917870  0.93179938    -0.10000
C1014       C  0.49550194  0.88846454  0.94149748    -0.10000
C1015       C  0.47785533  0.92350721  0.94408752     0.12500
C1016       C  0.49495312  0.95922504  0.94182998     0.00000
C1017       C  0.02991310  0.03058779  0.93381979    -0.10100
C1018       C  0.49485255  0.02990122  0.94317217    -0.10100
C1019       C  0.47751024  0.99529609  0.94314457     0.12700
C1020       C  0.44315891  0.99544853  0.94438298    -0.08200
C1021       C  0.42697154  0.96006426  0.94595223    -0.02100
C1022       C  0.44349052  0.92415551  0.94749805    -0.08200
H1023       H  0.04329734  0.86149207  0.92933710     0.10000
H1024       H  0.48308714  0.86092582  0.94299187     0.10000
H1025       H  0.04212449  0.05821296  0.93282999     0.10200
H1026       H  0.48223964  0.05762877  0.94495044     0.10200
H1027       H  0.12323951  0.96237225  0.90027067     0.06600
H1028       H  0.40057827  0.96038886  0.94811828     0.06600
O1029       O  0.11560634  0.04623686  0.94491911    -0.55200
C1030       C  0.21184528  0.11528609  0.91430661     0.77400
O1031       O  0.16496833  0.04830062  0.99718051    -0.56400
C1032       C  0.10116100  0.03209059  0.91382868     0.77400
C1033       C  0.12856324  0.16596472  0.86276181     0.79800
Cd1034     Cd  0.15157696  0.08902008  0.88905986     1.37500
O1035       O  0.19032843  0.10266203  0.94476646    -0.55200
O1036       O  0.12829580  0.15245332  0.90434076    -0.54000
C1037       C  0.18517005  0.02756760  0.84919864     0.79800
O1038       O  0.13581948  0.14238008  0.83340189    -0.56400
O1039       O  0.20415181  0.11858784  0.87336969    -0.54800
O1040       O  0.10644714  0.04836603  0.87379719    -0.54800
O1041       O  0.19334905  0.03772570  0.88652099    -0.54000
O1042       O  0.30822058  0.06957119  0.98280257    -0.55200
C1043       C  0.42185052  0.03048546  0.94604479     0.77400
O1044       O  0.36060203  0.05857298  0.86620801    -0.56400
C1045       C  0.29512708  0.09663710  0.95765999     0.77400
C1046       C  0.38130103  0.16048219  0.93822295     0.79800
Cd1047     Cd  0.36363299  0.07945193  0.94677915     1.37500
O1048       O  0.40415822  0.03549871  0.81481153    -0.55200
O1049       O  0.38614051  0.13784083  0.97363413    -0.54800
C1050       C  0.34612012  0.02833513  0.88266519     0.79800
O1051       O  0.37140843  0.14502072  0.90501878    -0.56400
O1052       O  0.41433696  0.05136175  0.91031659    -0.54800
O1053       O  0.31393223  0.11744702  0.92991855    -0.54800
O1054       O  0.33562680  0.02645260  0.92389762    -0.54000
O1055       O  0.14449914  0.56272436  0.93685752    -0.55200
C1056       C  0.04433894  0.61032621  0.95727412     0.77400
O1057       O  0.09554752  0.54373219  0.89544560    -0.56400
C1058       C  0.16062724  0.54344873  0.96688790     0.77400
C1059       C  0.12319722  0.66800466  0.84250211     0.79800
Cd1060     Cd  0.10538203  0.59017895  0.99321619     1.37500
O1061       O  0.06929398  0.60511802  0.93099529    -0.55200
O1062       O  0.11984667  0.65751028  0.97002128    -0.54000
C1063       C  0.08022279  0.52060201  0.87440049     0.79800
O1064       O  0.12131120  0.64104662  0.87532818    -0.56400
O1065       O  0.04998208  0.60773034  0.83327248    -0.54800
O1066       O  0.15896828  0.55447580  0.83668841    -0.54800
O1067       O  0.07526451  0.53163185  0.83329063    -0.54000
O1068       O  0.35971984  0.54495622  0.98077210    -0.55200
C1069       C  0.45343730  0.60876102  0.95145082     0.77400
O1070       O  0.41189782  0.53821297  0.86301593    -0.56400
C1071       C  0.33927350  0.53598184  0.95355497     0.77400
C1072       C  0.37752254  0.66092411  0.88421497     0.79800
Cd1073     Cd  0.39464095  0.58351166  0.92032661     1.37500
O1074       O  0.42851738  0.60277149  0.97867387    -0.55200
O1075       O  0.38002787  0.65187421  0.92644545    -0.54000
C1076       C  0.42977801  0.51763637  0.88972792     0.79800
O1077       O  0.37945641  0.63326262  0.85908466    -0.56400
O1078       O  0.45018788  0.60540743  0.90980473    -0.54800
O1079       O  0.34140899  0.55390502  0.91393617    -0.54800
O1080       O  0.43252943  0.52895936  0.92837857    -0.54000
C1081       C  0.17976678  0.43828740  0.95401671    -0.08200
C1082       C  0.16399764  0.47470804  0.95362957    -0.02100
C1083       C  0.18088147  0.50907765  0.95696468    -0.08200
C1084       C  0.21501102  0.50746033  0.95902255     0.12700
C1085       C  0.23164804  0.47101935  0.95758091     0.00000
C1086       C  0.21396212  0.43630361  0.95528627     0.12500
C1087       C  0.23089443  0.40060498  0.95430179    -0.10000
C1088       C  0.26464252  0.39887033  0.95526678    -0.10000
C1089       C  0.28256162  0.43264564  0.95825612     0.12500
C1090       C  0.26595915  0.46909138  0.95980870     0.00000
C1091       C  0.23289389  0.54116999  0.96258202    -0.10100
C1092       C  0.26667013  0.53938212  0.96391613    -0.10100
C1093       C  0.28365639  0.50372557  0.96247625     0.12700
C1094       C  0.31788171  0.50162608  0.96394536    -0.08200
C1095       C  0.33355657  0.46508804  0.96461553    -0.02100
C1096       C  0.31665528  0.43088725  0.96036898    -0.08200
H1097       H  0.21811878  0.37377270  0.95222888     0.10000
H1098       H  0.27659624  0.37066005  0.95441349     0.10000
H1099       H  0.22086065  0.56930050  0.96387108     0.10200
H1100       H  0.27943383  0.56609596  0.96666404     0.10200
H1101       H  0.13764851  0.47586466  0.95500559     0.06600
H1102       H  0.35990091  0.46380626  0.96362150     0.06600
O1103       O  0.06930197  0.33462452  0.93348662    -0.55200
C1104       C  0.15855708  0.40371121  0.96301999     0.77400
O1105       O  0.08767130  0.39959809  0.88529497    -0.56400
C1106       C  0.04446393  0.32982594  0.96126436     0.77400
C1107       C  0.12327041  0.27743397  0.85811868     0.79800
Cd1108     Cd  0.10371295  0.35527783  0.82653423     1.37500
O1109       O  0.14010419  0.39364680  0.93372201    -0.55200
O1110       O  0.12106184  0.28850590  0.98100609    -0.54000
C1111       C  0.06907100  0.42032272  0.85970734     0.79800
O1112       O  0.11939114  0.30324117  0.88564559    -0.56400
O1113       O  0.15595803  0.38639385  0.83343822    -0.54800
O1114       O  0.04873879  0.33231960  0.83713996    -0.54800
O1115       O  0.06499570  0.40907232  0.82134163    -0.54000
O1116       O  0.35373491  0.37616368  0.81315873    -0.55200
C1117       C  0.45159124  0.32687592  0.95609815     0.77400
O1118       O  0.37871857  0.29638928  0.87389600    -0.56400
C1119       C  0.33676218  0.39637645  0.95024278     0.77400
C1120       C  0.41971179  0.41790860  0.87347326     0.79800
Cd1121     Cd  0.39098952  0.34938260  0.92054439     1.37500
O1122       O  0.42779244  0.33441086  0.81696590    -0.55200
O1123       O  0.42509688  0.40589499  0.91420294    -0.54000
C1124       C  0.37663902  0.27097705  0.90836308     0.79800
O1125       O  0.40313006  0.39608772  0.85236513    -0.56400
O1126       O  0.44780577  0.32995059  0.91373299    -0.54800
O1127       O  0.33835403  0.38462233  0.91108958    -0.54800
O1128       O  0.37729308  0.28318207  0.94708467    -0.54000
C1129       C  0.01229115  0.32216471  0.94571699    -0.13800
C1130       C  0.48378547  0.32052521  0.97422962    -0.29000
H1131       H  0.01063421  0.31659692  0.91071501     0.15200
H1132       H  0.48679277  0.32698985  0.84439673     0.15800
C1133       C  0.44415490  0.47999828  0.87971567    -0.13800
C1134       C  0.42870072  0.45755599  0.85402797    -0.29000
H1135       H  0.45926416  0.46593866  0.90564537     0.15200
H1136       H  0.41388535  0.47100831  0.82753340     0.15800
C1137       C  0.07204599  0.48079875  0.89444934    -0.13800
C1138       C  0.05539845  0.45818212  0.87033166    -0.29000
H1139       H  0.08778770  0.46749961  0.91984473     0.15200
H1140       H  0.03938867  0.47219737  0.84554789     0.15800
C1141       C  0.01184115  0.61478384  0.93961063    -0.13800
C1142       C  0.48522924  0.61606537  0.96829613    -0.29000
H1143       H  0.01019095  0.61326614  0.90367834     0.15200
H1144       H  0.48671864  0.61509919  0.00463212     0.15800
C1145       C  0.37464273  0.22886030  0.90428011    -0.13800
C1146       C  0.38549275  0.20281541  0.93728735    -0.29000
H1147       H  0.36487029  0.21924574  0.87423592     0.15200
H1148       H  0.39601335  0.21305345  0.96649014     0.15800
C1149       C  0.12180822  0.20746020  0.84866540    -0.13800
C1150       C  0.12896042  0.23593690  0.87405353    -0.29000
H1151       H  0.11254895  0.21495404  0.81536091     0.15200
H1152       H  0.13862376  0.22866375  0.90705947     0.15800
C1153       C  0.24535065  0.12275472  0.92446445    -0.13800
C1154       C  0.25954980  0.10124526  0.95835206    -0.29000
H1155       H  0.26022843  0.14010454  0.89841467     0.15200
H1156       H  0.24506076  0.08156416  0.98242234     0.15800
C1157       C  0.37366637  0.70181017  0.86475861    -0.13800
C1158       C  0.38202009  0.73180552  0.88704258    -0.29000
H1159       H  0.36524205  0.70726741  0.83070073     0.15200
H1160       H  0.39053326  0.72631406  0.92105059     0.15800
C1161       C  0.33553303  0.95921409  0.88085545    -0.13800
C1162       C  0.34440799  0.99355972  0.85805599    -0.29000
H1163       H  0.32633944  0.95783808  0.91619498     0.15200
H1164       H  0.35721797  0.99374876  0.99176719     0.15800
C1165       C  0.11971224  0.73759750  0.98520327    -0.13800
C1166       C  0.12709213  0.70842315  0.01705456    -0.29000
H1167       H  0.10988690  0.73085700  0.95387047     0.15200
H1168       H  0.13582191  0.71481424  0.04919309     0.15800
C1169       C  0.18033734  0.97399095  0.97277124    -0.13800
C1170       C  0.19568843  0.98888501  0.00522888    -0.29000
H1171       H  0.16709110  0.99297095  0.94864498     0.15200
H1172       H  0.20872026  0.96961965  0.02954186     0.15800
C1173       C  0.26597940  0.83152039  0.96522062    -0.13800
C1174       C  0.24338315  0.82284658  0.99943445    -0.29000
H1175       H  0.25887951  0.84138725  0.93126569     0.15200
H1176       H  0.25044503  0.81152836  0.86679891     0.15800
O1177       O  0.69006618  0.82631944  0.03311897    -0.55200
C1178       C  0.59962694  0.89186199  0.06655315     0.77400
O1179       O  0.65710380  0.91830046  0.11681932    -0.56400
C1180       C  0.70931741  0.83392200  0.16269077     0.77400
C1181       C  0.62407209  0.78022071  0.16194365     0.79800
Cd1182     Cd  0.64262829  0.85975857  0.16402872     1.37500
O1183       O  0.62559524  0.87640589  0.07940004    -0.55200
O1184       O  0.64260577  0.78998213  0.19099498    -0.54000
C1185       C  0.67092476  0.93347771  0.14728807     0.79800
O1186       O  0.61248835  0.80753973  0.13534159    -0.56400
O1187       O  0.59127470  0.88522893  0.19596568    -0.54800
O1188       O  0.69685922  0.84854303  0.12674283    -0.54800
O1189       O  0.67338522  0.91315040  0.18517887    -0.54000
O1190       O  0.82317735  0.83874584  0.10753873    -0.55200
C1191       C  0.92379661  0.89041533  0.12282057     0.77400
O1192       O  0.85037765  0.89365347  0.05490539    -0.56400
C1193       C  0.80060997  0.83875325  0.13885549     0.77400
C1194       C  0.88006910  0.77405302  0.03284175     0.79800
Cd1195     Cd  0.86613068  0.85152143  0.99605297     1.37500
O1196       O  0.90349796  0.87951193  0.09648046    -0.55200
O1197       O  0.87605340  0.78107479  0.15505304    -0.54000
C1198       C  0.84559083  0.92395980  0.02800222     0.79800
O1199       O  0.87926902  0.80192806  0.05772505    -0.56400
O1200       O  0.92071306  0.87623985  0.00250988    -0.54800
O1201       O  0.80975067  0.83583856  0.01596983    -0.54800
O1202       O  0.84921959  0.92054898  0.98587479    -0.54000
C1203       C  0.58201102  0.92422663  0.08821163    -0.08200
C1204       C  0.59781423  0.96028092  0.08616927    -0.02100
C1205       C  0.58124366  0.99512654  0.09472201    -0.08200
C1206       C  0.54697733  0.99483887  0.10121554     0.12700
C1207       C  0.53023206  0.95902448  0.10226873     0.00000
C1208       C  0.54784352  0.92353954  0.09767428     0.12500
C1209       C  0.53065599  0.88837251  0.10091050    -0.10000
C1210       C  0.99624916  0.88977234  0.10457353    -0.10000
C1211       C  0.97850557  0.92483922  0.10592940     0.12500
C1212       C  0.99545074  0.96076458  0.10250020     0.00000
C1213       C  0.52891628  0.02964368  0.10422446    -0.10100
C1214       C  0.99512097  0.03159824  0.10208867    -0.10100
C1215       C  0.97787423  0.99674982  0.10336453     0.12700
C1216       C  0.94349380  0.99656062  0.10564392    -0.08200
C1217       C  0.92746059  0.96097258  0.10805092    -0.02100
C1218       C  0.94418273  0.92519626  0.10966860    -0.08200
H1219       H  0.54340086  0.86076654  0.09879632     0.10000
H1220       H  0.98397125  0.86206542  0.10718300     0.10000
H1221       H  0.54093030  0.05732898  0.10386392     0.10200
H1222       H  0.98240464  0.05930167  0.10345432     0.10200
H1223       H  0.62299819  0.96227480  0.07342802     0.06600
H1224       H  0.90107849  0.96104475  0.11088268     0.06600
O1225       O  0.61108392  0.04960555  0.11739560    -0.55200
C1226       C  0.71125606  0.11605192  0.08593449     0.77400
O1227       O  0.66166149  0.04734615  0.16607223    -0.56400
C1228       C  0.60031164  0.03168307  0.08605885     0.77400
C1229       C  0.62659128  0.16481727  0.03120288     0.79800
Cd1230     Cd  0.65049473  0.08886660  0.06178550     1.37500
O1231       O  0.69097016  0.10040542  0.11633814    -0.55200
O1232       O  0.62591142  0.15252206  0.07317368    -0.54000
C1233       C  0.68382659  0.02543776  0.02428830     0.79800
O1234       O  0.63469465  0.14039956  0.00314194    -0.56400
O1235       O  0.70216753  0.12191264  0.04570491    -0.54800
O1236       O  0.60910679  0.04433993  0.04563298    -0.54800
O1237       O  0.69478716  0.03964094  0.05771500    -0.54000
O1238       O  0.80935929  0.06967890  0.14825456    -0.55200
C1239       C  0.92206651  0.03143330  0.10807257     0.77400
O1240       O  0.86006778  0.06114715  0.02906401    -0.56400
C1241       C  0.79575023  0.09789904  0.12557317     0.77400
C1242       C  0.88129276  0.16219470  0.10261227     0.79800
Cd1243     Cd  0.86403253  0.08090978  0.11056763     1.37500
O1244       O  0.90362402  0.03419282  0.97834699    -0.55200
O1245       O  0.88604315  0.13950021  0.13801034    -0.54800
C1246       C  0.84476335  0.03142397  0.04526533     0.79800
O1247       O  0.87187000  0.14668341  0.06916159    -0.56400
O1248       O  0.91467972  0.05313830  0.07287887    -0.54800
O1249       O  0.81402718  0.11997443  0.09847643    -0.54800
O1250       O  0.83368872  0.03011372  0.08623677    -0.54000
O1251       O  0.63928538  0.56303007  0.10325489    -0.55200
C1252       C  0.54377645  0.61235204  0.12662570     0.77400
O1253       O  0.58901489  0.54375946  0.06345320    -0.56400
C1254       C  0.65850305  0.54560457  0.13052963     0.77400
C1255       C  0.62137202  0.66718072  0.01419843     0.79800
Cd1256     Cd  0.60446905  0.59133856  0.16303725     1.37500
O1257       O  0.56902877  0.60846429  0.10054095    -0.55200
O1258       O  0.61784424  0.65923370  0.14079483    -0.54000
C1259       C  0.57636306  0.52024762  0.03978345     0.79800
O1260       O  0.61932349  0.63972006  0.04642425    -0.56400
O1261       O  0.54813318  0.60701464  0.00165592    -0.54800
O1262       O  0.65447218  0.55022823  0.01046412    -0.54800
O1263       O  0.57493064  0.53093327  0.99769049    -0.54000
O1264       O  0.85700366  0.54562952  0.14618194    -0.55200
C1265       C  0.95276811  0.60939584  0.11727639     0.77400
O1266       O  0.90611231  0.54052488  0.02937878    -0.56400
C1267       C  0.83699234  0.53706074  0.11809614     0.77400
C1268       C  0.87598151  0.66275282  0.05010126     0.79800
Cd1269     Cd  0.89238524  0.58581224  0.08702965     1.37500
O1270       O  0.92773573  0.60506486  0.14460996    -0.55200
O1271       O  0.87611051  0.65356744  0.09269375    -0.54000
C1272       C  0.92554855  0.52040368  0.05414781     0.79800
O1273       O  0.87967734  0.63531889  0.02482030    -0.56400
O1274       O  0.94913818  0.60518158  0.07593282    -0.54800
O1275       O  0.83949098  0.55583054  0.07896743    -0.54800
O1276       O  0.93065919  0.53211417  0.09190999    -0.54000
C1277       C  0.67679664  0.44069677  0.11663616    -0.08200
C1278       C  0.66133679  0.47738048  0.11495946    -0.02100
C1279       C  0.67846429  0.51153909  0.11865501    -0.08200
C1280       C  0.71260001  0.50958138  0.12063547     0.12700
C1281       C  0.72894925  0.47292710  0.11992745     0.00000
C1282       C  0.71097537  0.43835961  0.11824559     0.12500
C1283       C  0.72761769  0.40238741  0.11813862    -0.10000
C1284       C  0.76135164  0.40026740  0.11934543    -0.10000
C1285       C  0.77954161  0.43392775  0.12176580     0.12500
C1286       C  0.76323349  0.47063071  0.12254300     0.00000
C1287       C  0.73076586  0.54323734  0.12328121    -0.10100
C1288       C  0.76449704  0.54110002  0.12501789    -0.10100
C1289       C  0.78119138  0.50515285  0.12484349     0.12700
C1290       C  0.81536625  0.50270290  0.12711123    -0.08200
C1291       C  0.83077415  0.46598343  0.12777710    -0.02100
C1292       C  0.81363654  0.43187540  0.12378647    -0.08200
H1293       H  0.71463935  0.37563618  0.11641904     0.10000
H1294       H  0.77310125  0.37189202  0.11903594     0.10000
H1295       H  0.71898196  0.57160132  0.12353457     0.10200
H1296       H  0.77743252  0.56781249  0.12710086     0.10200
H1297       H  0.63497844  0.47881958  0.11611920     0.06600
H1298       H  0.85707261  0.46442722  0.12679750     0.06600
O1299       O  0.56874867  0.33478336  0.10325724    -0.55200
C1300       C  0.65547356  0.40636491  0.12766912     0.77400
O1301       O  0.58250278  0.39865048  0.05104183    -0.56400
C1302       C  0.54386878  0.32942979  0.13073214     0.77400
C1303       C  0.62010096  0.27628311  0.02461427     0.79800
Cd1304     Cd  0.60144817  0.35420908  0.99381027     1.37500
O1305       O  0.63489003  0.39705141  0.10082444    -0.55200
O1306       O  0.61940768  0.28925902  0.14894429    -0.54000
C1307       C  0.56631361  0.42019428  0.02287529     0.79800
O1308       O  0.61613062  0.30198444  0.05227968    -0.56400
O1309       O  0.65251726  0.38568959  0.00617616    -0.54800
O1310       O  0.54596160  0.33284901  0.00459067    -0.54800
O1311       O  0.56500448  0.40952000  0.98355610    -0.54000
O1312       O  0.85290932  0.37545525  0.97544634    -0.55200
C1313       C  0.95094888  0.33214329  0.11957150     0.77400
O1314       O  0.88041400  0.29774711  0.03806475    -0.56400
C1315       C  0.83357612  0.39721640  0.11362542     0.77400
C1316       C  0.91484406  0.42066988  0.03856699     0.79800
Cd1317     Cd  0.88890318  0.35108617  0.08556807     1.37500
O1318       O  0.92824809  0.34048585  0.97946308    -0.55200
O1319       O  0.92068264  0.40916583  0.07930672    -0.54000
C1320       C  0.87602186  0.27260143  0.07248312     0.79800
O1321       O  0.89901207  0.39799153  0.01762386    -0.56400
O1322       O  0.94662400  0.33507451  0.07738503    -0.54800
O1323       O  0.83725169  0.38762170  0.07350576    -0.54800
O1324       O  0.87376521  0.28508079  0.11125207    -0.54000
C1325       C  0.51214042  0.32096611  0.11462227    -0.13800
C1326       C  0.98353148  0.32723264  0.13687256    -0.29000
H1327       H  0.51057482  0.31879898  0.07869488     0.15200
H1328       H  0.98704674  0.33435085  0.00663258     0.15800
C1329       C  0.93926356  0.48283670  0.04320553    -0.13800
C1330       C  0.92265772  0.46049746  0.01887043    -0.29000
H1331       H  0.95550757  0.46880411  0.06766838     0.15200
H1332       H  0.90670898  0.47391780  0.99380298     0.15800
C1333       C  0.56725385  0.48042057  0.05856922    -0.13800
C1334       C  0.55224147  0.45816575  0.03217794    -0.29000
H1335       H  0.58134922  0.46688101  0.08582503     0.15200
H1336       H  0.53790926  0.47251442  0.00552105     0.15800
C1337       C  0.51157644  0.61811984  0.10828506    -0.13800
C1338       C  0.98494628  0.61599061  0.13374449    -0.29000
H1339       H  0.51022067  0.61862028  0.07199037     0.15200
H1340       H  0.98661022  0.61599648  0.16992703     0.15800
C1341       C  0.87468979  0.23046479  0.06834531    -0.13800
C1342       C  0.88492632  0.20461698  0.10197720    -0.29000
H1343       H  0.86598626  0.22069131  0.03774081     0.15200
H1344       H  0.89449877  0.21506246  0.13168660     0.15800
C1345       C  0.61955038  0.20597180  0.01554591    -0.13800
C1346       C  0.62595105  0.23491813  0.04064742    -0.29000
H1347       H  0.61060052  0.21276100  0.98190003     0.15200
H1348       H  0.63522954  0.22807556  0.07396817     0.15800
C1349       C  0.74498615  0.12395932  0.09504812    -0.13800
C1350       C  0.76010642  0.10225897  0.12795984    -0.29000
H1351       H  0.75919779  0.14203932  0.06892939     0.15200
H1352       H  0.74626649  0.08198839  0.15212077     0.15800
C1353       C  0.87312960  0.70360260  0.03044549    -0.13800
C1354       C  0.88223333  0.73317048  0.05277910    -0.29000
H1355       H  0.86529142  0.70931836  0.99606617     0.15200
H1356       H  0.89032196  0.72736249  0.08702170     0.15800
C1357       C  0.83730356  0.96129399  0.04575519    -0.13800
C1358       C  0.84380395  0.99588691  0.02166688    -0.29000
H1359       H  0.82952602  0.96009885  0.08161946     0.15200
H1360       H  0.85707610  0.99455457  0.15416187     0.15800
C1361       C  0.61716267  0.73903982  0.15783746    -0.13800
C1362       C  0.62682160  0.70952749  0.18776765    -0.29000
H1363       H  0.60437499  0.73275666  0.12859099     0.15200
H1364       H  0.63819778  0.71549153  0.21828067     0.15800
C1365       C  0.67998440  0.97436982  0.14059655    -0.13800
C1366       C  0.69510828  0.99003596  0.17259836    -0.29000
H1367       H  0.66622159  0.99274375  0.11651425     0.15200
H1368       H  0.70883269  0.97144432  0.19673366     0.15800
C1369       C  0.76605010  0.83622416  0.13011790    -0.13800
C1370       C  0.74424130  0.82538147  0.16465101    -0.29000
H1371       H  0.75822529  0.84735580  0.09684495     0.15200
H1372       H  0.75228754  0.81016039  0.03456855     0.15800
O1373       O  0.69051041  0.82892523  0.19826473    -0.55200
C1374       C  0.60004751  0.89240290  0.23441713     0.77400
O1375       O  0.65962362  0.91601563  0.28368304    -0.56400
C1376       C  0.71020319  0.82880978  0.33101188     0.77400
C1377       C  0.62526869  0.77691729  0.32886370     0.79800
Cd1378     Cd  0.64382326  0.85708254  0.33057609     1.37500
O1379       O  0.62596162  0.87638409  0.24678271    -0.55200
O1380       O  0.64138451  0.78736791  0.36021339    -0.54000
C1381       C  0.67381480  0.93043092  0.31443170     0.79800
O1382       O  0.61584712  0.80377888  0.29978626    -0.56400
O1383       O  0.59200040  0.88261661  0.36182081    -0.54800
O1384       O  0.69835115  0.84362517  0.29466570    -0.54800
O1385       O  0.67594912  0.90951098  0.35201167    -0.54000
O1386       O  0.82407562  0.83752529  0.27650944    -0.55200
C1387       C  0.92517550  0.88919499  0.29285669     0.77400
O1388       O  0.85221430  0.89108857  0.22030469    -0.56400
C1389       C  0.80180343  0.83392916  0.30840224     0.77400
C1390       C  0.87847891  0.77254740  0.19743754     0.79800
Cd1391     Cd  0.86606395  0.85067127  0.15953914     1.37500
O1392       O  0.90513878  0.87840045  0.26597520    -0.55200
O1393       O  0.87831486  0.78047233  0.32327376    -0.54000
C1394       C  0.84739990  0.92190172  0.19410999     0.79800
O1395       O  0.87800900  0.80071396  0.22183559    -0.56400
O1396       O  0.92111953  0.87568294  0.16392418    -0.54800
O1397       O  0.80887236  0.84281860  0.17842405    -0.54800
O1398       O  0.85014459  0.91933739  0.15175867    -0.54000
C1399       C  0.58267475  0.92466764  0.25668163    -0.08200
C1400       C  0.59853588  0.96073879  0.25486380    -0.02100
C1401       C  0.58166592  0.99586126  0.26160016    -0.08200
C1402       C  0.54735917  0.99545526  0.26788430     0.12700
C1403       C  0.53076504  0.95943745  0.27013106     0.00000
C1404       C  0.54847863  0.92398030  0.26592465     0.12500
C1405       C  0.53138470  0.88871246  0.26942171    -0.10000
C1406       C  0.99774013  0.88902753  0.27362127    -0.10000
C1407       C  0.97990600  0.92394454  0.27569333     0.12500
C1408       C  0.99674723  0.95998986  0.27191223     0.00000
C1409       C  0.52913483  0.03022199  0.27046169    -0.10100
C1410       C  0.99619968  0.03089333  0.27073967    -0.10100
C1411       C  0.97906294  0.99590124  0.27273633     0.12700
C1412       C  0.94468418  0.99550124  0.27564299    -0.08200
C1413       C  0.92876712  0.95979721  0.27892812    -0.02100
C1414       C  0.94557725  0.92410048  0.28025046    -0.08200
H1415       H  0.54418902  0.86115296  0.26724700     0.10000
H1416       H  0.98555445  0.86125855  0.27628696     0.10000
H1417       H  0.54102033  0.05806984  0.26934057     0.10200
H1418       H  0.98339499  0.05855886  0.27192327     0.10200
H1419       H  0.62394457  0.96247249  0.24337395     0.06600
H1420       H  0.90242673  0.95975706  0.28208158     0.06600
O1421       O  0.61693030  0.04588614  0.28224613    -0.55200
C1422       C  0.71192140  0.11521623  0.24803691     0.77400
O1423       O  0.66798515  0.04612084  0.33208920    -0.56400
C1424       C  0.60056585  0.03259656  0.25248293     0.77400
C1425       C  0.62815540  0.16611792  0.19561130     0.79800
Cd1426     Cd  0.65067433  0.08960102  0.22479695     1.37500
O1427       O  0.69058925  0.10341455  0.27925017    -0.55200
O1428       O  0.62759785  0.15349433  0.23751532    -0.54000
C1429       C  0.68358010  0.02754184  0.18647129     0.79800
O1430       O  0.63564944  0.14183948  0.16711272    -0.56400
O1431       O  0.70360434  0.11818851  0.20738060    -0.54800
O1432       O  0.60359572  0.05006132  0.21267895    -0.54800
O1433       O  0.69258584  0.03918754  0.22255072    -0.54000
O1434       O  0.80949139  0.07019437  0.31561026    -0.55200
C1435       C  0.92312319  0.03035935  0.27696559     0.77400
O1436       O  0.86316412  0.05865776  0.19713312    -0.56400
C1437       C  0.79604736  0.09646852  0.28970150     0.77400
C1438       C  0.88216183  0.16100890  0.26824569     0.79800
Cd1439     Cd  0.86485317  0.07964002  0.27773652     1.37500
O1440       O  0.90603292  0.03694823  0.14473541    -0.55200
O1441       O  0.88824235  0.13832426  0.30311662    -0.54800
C1442       C  0.84827104  0.02863590  0.21328028     0.79800
O1443       O  0.87119172  0.14549334  0.23583362    -0.56400
O1444       O  0.91534150  0.05080117  0.24109326    -0.54800
O1445       O  0.81457124  0.11632260  0.26060720    -0.54800
O1446       O  0.83642135  0.02735025  0.25388308    -0.54000
O1447       O  0.64207654  0.55908160  0.27216415    -0.55200
C1448       C  0.54444472  0.60801786  0.29491521     0.77400
O1449       O  0.59229302  0.54456947  0.23169954    -0.56400
C1450       C  0.66086362  0.54238100  0.30053942     0.77400
C1451       C  0.62130062  0.66861142  0.18029503     0.79800
Cd1452     Cd  0.60599100  0.58797658  0.33028671     1.37500
O1453       O  0.56991900  0.60663586  0.26864064    -0.55200
O1454       O  0.61995708  0.65561001  0.30817031    -0.54000
C1455       C  0.57761777  0.52127321  0.21012152     0.79800
O1456       O  0.61941915  0.64132498  0.21272957    -0.56400
O1457       O  0.54728669  0.60854696  0.16905162    -0.54800
O1458       O  0.65635371  0.55484523  0.17081813    -0.54800
O1459       O  0.57277256  0.53260084  0.16904903    -0.54000
O1460       O  0.86103477  0.54244676  0.31101794    -0.55200
C1461       C  0.95495282  0.60692646  0.28352930     0.77400
O1462       O  0.91047460  0.54039731  0.19088652    -0.56400
C1463       C  0.83957550  0.53510977  0.28445718     0.77400
C1464       C  0.87733141  0.66071777  0.21580164     0.79800
Cd1465     Cd  0.89511977  0.58314502  0.25153258     1.37500
O1466       O  0.93023978  0.59970643  0.31082734    -0.55200
O1467       O  0.88124387  0.65195389  0.25776031    -0.54000
C1468       C  0.92847480  0.51839135  0.21592802     0.79800
O1469       O  0.87838868  0.63284103  0.19104842    -0.56400
O1470       O  0.95123739  0.60526483  0.24166887    -0.54800
O1471       O  0.84076493  0.55486157  0.24588200    -0.54800
O1472       O  0.93189827  0.52766592  0.25535571    -0.54000
C1473       C  0.67942748  0.43684810  0.28865999    -0.08200
C1474       C  0.66372002  0.47334558  0.28803917    -0.02100
C1475       C  0.68077428  0.50778688  0.29049484    -0.08200
C1476       C  0.71494944  0.50625424  0.29127950     0.12700
C1477       C  0.73145671  0.46968476  0.29100002     0.00000
C1478       C  0.71364666  0.43482644  0.29005783     0.12500
C1479       C  0.73053706  0.39901302  0.29005958    -0.10000
C1480       C  0.76430361  0.39732822  0.29078467    -0.10000
C1481       C  0.78230543  0.43132752  0.29217686     0.12500
C1482       C  0.76581872  0.46789611  0.29252516     0.00000
C1483       C  0.73301877  0.54031262  0.29190146    -0.10100
C1484       C  0.76683335  0.53865891  0.29226231    -0.10100
C1485       C  0.78370034  0.50280657  0.29292377     0.12700
C1486       C  0.81796860  0.50076526  0.29428236    -0.08200
C1487       C  0.83351408  0.46413256  0.29592628    -0.02100
C1488       C  0.81643763  0.42976276  0.29326440    -0.08200
H1489       H  0.71774487  0.37204271  0.28891054     0.10000
H1490       H  0.77624957  0.36904647  0.29073271     0.10000
H1491       H  0.72108844  0.56862649  0.29155936     0.10200
H1492       H  0.77969284  0.56567495  0.29273160     0.10200
H1493       H  0.63736043  0.47456360  0.28976794     0.06600
H1494       H  0.85986226  0.46278012  0.29444141     0.06600
O1495       O  0.56941253  0.33195432  0.26963325    -0.55200
C1496       C  0.65821244  0.40219935  0.29712125     0.77400
O1497       O  0.58478009  0.39863110  0.22088442    -0.56400
C1498       C  0.54469629  0.32706190  0.29759380     0.77400
C1499       C  0.62206205  0.27761343  0.19057680     0.79800
Cd1500     Cd  0.60231174  0.35573931  0.16098162     1.37500
O1501       O  0.63784596  0.39434460  0.26914987    -0.55200
O1502       O  0.62145828  0.28579731  0.31586910    -0.54000
C1503       C  0.56777330  0.42057185  0.19411655     0.79800
O1504       O  0.61883731  0.30320424  0.21848043    -0.56400
O1505       O  0.65428077  0.38794577  0.16707538    -0.54800
O1506       O  0.54699637  0.33437190  0.17203764    -0.54800
O1507       O  0.56520805  0.41047521  0.15477351    -0.54000
O1508       O  0.85138609  0.37952359  0.14266165    -0.55200
C1509       C  0.95180242  0.33040017  0.28661755     0.77400
O1510       O  0.87925469  0.29680668  0.20423257    -0.56400
C1511       C  0.83635174  0.39548912  0.28228766     0.77400
C1512       C  0.91694924  0.41946366  0.20115454     0.79800
Cd1513     Cd  0.89070868  0.35018415  0.25088762     1.37500
O1514       O  0.92607096  0.33597660  0.14640416    -0.55200
O1515       O  0.92289767  0.40875229  0.24201408    -0.54000
C1516       C  0.87651471  0.27151131  0.23871535     0.79800
O1517       O  0.90080240  0.39630929  0.18138187    -0.56400
O1518       O  0.94785345  0.33201411  0.24439908    -0.54800
O1519       O  0.83845155  0.38540006  0.24235528    -0.54800
O1520       O  0.87657080  0.28385302  0.27741140    -0.54000
C1521       C  0.51247417  0.31934401  0.28220613    -0.13800
C1522       C  0.98413647  0.32553822  0.30458503    -0.29000
H1523       H  0.51080624  0.31341141  0.24729232     0.15200
H1524       H  0.98549270  0.32912955  0.17275911     0.15800
C1525       C  0.94253724  0.48147379  0.20307542    -0.13800
C1526       C  0.92511137  0.45891304  0.18000514    -0.29000
H1527       H  0.95935816  0.46735567  0.22665058     0.15200
H1528       H  0.90867988  0.47226029  0.15554745     0.15800
C1529       C  0.57019722  0.48100328  0.22942661    -0.13800
C1530       C  0.55399825  0.45837889  0.20476716    -0.29000
H1531       H  0.58592651  0.46773924  0.25491417     0.15200
H1532       H  0.53819012  0.47243905  0.17973434     0.15800
C1533       C  0.51217783  0.61323995  0.27659043    -0.13800
C1534       C  0.98692381  0.61406078  0.30031943    -0.29000
H1535       H  0.51076155  0.61249643  0.24041294     0.15200
H1536       H  0.98864980  0.61204082  0.33668703     0.15800
C1537       C  0.87451886  0.22938414  0.23469171    -0.13800
C1538       C  0.88619105  0.20341546  0.26713674    -0.29000
H1539       H  0.86404496  0.21971734  0.20522708     0.15200
H1540       H  0.89732216  0.21376692  0.29577980     0.15800
C1541       C  0.62155094  0.20748404  0.18038843    -0.13800
C1542       C  0.62780686  0.23606807  0.20614312    -0.29000
H1543       H  0.61301826  0.21467854  0.14679445     0.15200
H1544       H  0.63657125  0.22879486  0.23965666     0.15800
C1545       C  0.74585844  0.12211497  0.25693628    -0.13800
C1546       C  0.76038577  0.10138939  0.29116842    -0.29000
H1547       H  0.76061255  0.13845315  0.22986281     0.15200
H1548       H  0.74600404  0.08271464  0.31648155     0.15800
C1549       C  0.87299753  0.70148909  0.19604281    -0.13800
C1550       C  0.88125357  0.73177692  0.21787052    -0.29000
H1551       H  0.86456572  0.70663190  0.16193664     0.15200
H1552       H  0.88974777  0.72663894  0.25192436     0.15800
C1553       C  0.84003042  0.95895956  0.21265516    -0.13800
C1554       C  0.84743793  0.99350848  0.18915556    -0.29000
H1555       H  0.83195292  0.95751043  0.24840403     0.15200
H1556       H  0.85839247  0.99419783  0.32200778     0.15800
C1557       C  0.61871247  0.73552249  0.32495316    -0.13800
C1558       C  0.62787792  0.70610014  0.35541836    -0.29000
H1559       H  0.60671665  0.72898014  0.29513841     0.15200
H1560       H  0.63862170  0.71218679  0.38636618     0.15800
C1561       C  0.68367800  0.97121889  0.30841683    -0.13800
C1562       C  0.69860760  0.98645713  0.34102925    -0.29000
H1563       H  0.67087454  0.99007904  0.28366416     0.15200
H1564       H  0.71125808  0.96731181  0.36591289     0.15800
C1565       C  0.76726934  0.83010024  0.29964076    -0.13800
C1566       C  0.74509842  0.81969954  0.33395661    -0.29000
H1567       H  0.75958233  0.84063123  0.26613498     0.15200
H1568       H  0.75264690  0.81374697  0.19744198     0.15800
O1569       O  0.69089783  0.82455254  0.36612410    -0.55200
C1570       C  0.60104525  0.89071220  0.39977264     0.77400
O1571       O  0.65858019  0.91604980  0.44944986    -0.56400
C1572       C  0.71031283  0.82983605  0.49726466     0.77400
C1573       C  0.62475740  0.77689535  0.49457728     0.79800
Cd1574     Cd  0.64374803  0.85675767  0.49623514     1.37500
O1575       O  0.62699924  0.87503492  0.41222147    -0.55200
O1576       O  0.64061481  0.78747126  0.52611477    -0.54000
C1577       C  0.67258899  0.93062921  0.48021527     0.79800
O1578       O  0.61574923  0.80359456  0.46501664    -0.56400
O1579       O  0.59180502  0.88151176  0.52770047    -0.54800
O1580       O  0.69833639  0.84331135  0.46049185    -0.54800
O1581       O  0.67503610  0.90966127  0.51765970    -0.54000
O1582       O  0.82465684  0.83750346  0.44468829    -0.55200
C1583       C  0.92527354  0.88993176  0.45869281     0.77400
O1584       O  0.85121627  0.89068326  0.38768130    -0.56400
C1585       C  0.80191058  0.83645845  0.47585956     0.77400
C1586       C  0.88135890  0.77189515  0.36554569     0.79800
Cd1587     Cd  0.86707468  0.84953369  0.32832812     1.37500
O1588       O  0.90422766  0.87991619  0.43284386    -0.55200
O1589       O  0.87758872  0.78157127  0.49119267    -0.54000
C1590       C  0.84735352  0.92148432  0.36112445     0.79800
O1591       O  0.88089542  0.79998726  0.39011050    -0.56400
O1592       O  0.92203865  0.87443971  0.33395623    -0.54800
O1593       O  0.81024527  0.83612329  0.34834989    -0.54800
O1594       O  0.85142478  0.91870640  0.31889971    -0.54000
C1595       C  0.58411744  0.92351097  0.42144053    -0.08200
C1596       C  0.60021263  0.95945760  0.41850397    -0.02100
C1597       C  0.58395831  0.99457414  0.42674634    -0.08200
C1598       C  0.54966582  0.99457896  0.43386044     0.12700
C1599       C  0.53276092  0.95872148  0.43656670     0.00000
C1600       C  0.55015015  0.92305327  0.43230409     0.12500
C1601       C  0.53293946  0.88785025  0.43729180    -0.10000
C1602       C  0.99808428  0.88868769  0.44043065    -0.10000
C1603       C  0.98042612  0.92381924  0.44185523     0.12500
C1604       C  0.99754900  0.95964310  0.43837073     0.00000
C1605       C  0.53170362  0.02955580  0.43617838    -0.10100
C1606       C  0.99748389  0.03050998  0.43783994    -0.10100
C1607       C  0.98017429  0.99571450  0.43922719     0.12700
C1608       C  0.94589437  0.99578498  0.44130523    -0.08200
C1609       C  0.92957884  0.96040680  0.44348365    -0.02100
C1610       C  0.94604718  0.92444506  0.44543772    -0.08200
H1611       H  0.54559035  0.86013929  0.43556977     0.10000
H1612       H  0.98570757  0.86104175  0.44313002     0.10000
H1613       H  0.54383537  0.05729855  0.43443712     0.10200
H1614       H  0.98488186  0.05829213  0.43915469     0.10200
H1615       H  0.62531882  0.96108627  0.40538348     0.06600
H1616       H  0.90324366  0.96078039  0.44589133     0.06600
O1617       O  0.61787337  0.04546206  0.44882710    -0.55200
C1618       C  0.71508285  0.11432756  0.41757450     0.77400
O1619       O  0.66775627  0.04626573  0.49973297    -0.56400
C1620       C  0.60345499  0.03086529  0.41801978     0.77400
C1621       C  0.63121325  0.16323592  0.36319112     0.79800
Cd1622     Cd  0.65473357  0.08712710  0.39224549     1.37500
O1623       O  0.69382550  0.10102356  0.44804148    -0.55200
O1624       O  0.63058551  0.15055829  0.40508127    -0.54000
C1625       C  0.68811171  0.02471874  0.35424944     0.79800
O1626       O  0.63934944  0.13921155  0.33466532    -0.56400
O1627       O  0.70717899  0.11778551  0.37671775    -0.54800
O1628       O  0.60927282  0.04631869  0.37773616    -0.54800
O1629       O  0.69582142  0.03538455  0.39155246    -0.54000
O1630       O  0.81231041  0.06886822  0.48287260    -0.55200
C1631       C  0.92494840  0.03097151  0.44302118     0.77400
O1632       O  0.86317546  0.05868303  0.36447209    -0.56400
C1633       C  0.79881902  0.09671338  0.45941309     0.77400
C1634       C  0.88467306  0.16073244  0.43400904     0.79800
Cd1635     Cd  0.86714168  0.07966458  0.44472093     1.37500
O1636       O  0.90730292  0.03699067  0.31342122    -0.55200
O1637       O  0.89025517  0.13840990  0.46936571    -0.54800
C1638       C  0.84929436  0.02811175  0.38115738     0.79800
O1639       O  0.87403933  0.14495191  0.40152259    -0.56400
O1640       O  0.91656762  0.05093498  0.40716221    -0.54800
O1641       O  0.81720868  0.11824124  0.43189936    -0.54800
O1642       O  0.83918884  0.02605299  0.42257779    -0.54000
O1643       O  0.64269284  0.56022826  0.43765295    -0.55200
C1644       C  0.54535193  0.61004607  0.46152028     0.77400
O1645       O  0.59301354  0.54144817  0.39855901    -0.56400
C1646       C  0.66108914  0.54184960  0.46540690     0.77400
C1647       C  0.62258476  0.66510557  0.34784862     0.79800
Cd1648     Cd  0.60644221  0.58792475  0.49732030     1.37500
O1649       O  0.57015687  0.60423325  0.43529526    -0.55200
O1650       O  0.61967906  0.65557240  0.47458742    -0.54000
C1651       C  0.58051395  0.51709835  0.37591940     0.79800
O1652       O  0.61997961  0.63792646  0.38036709    -0.56400
O1653       O  0.54792481  0.60234016  0.33731197    -0.54800
O1654       O  0.65826773  0.55286797  0.34026835    -0.54800
O1655       O  0.57753821  0.52740942  0.33406324    -0.54000
O1656       O  0.85742012  0.54586432  0.47919584    -0.55200
C1657       C  0.95519717  0.60821262  0.45036550     0.77400
O1658       O  0.91155460  0.53788054  0.36306285    -0.56400
C1659       C  0.83990881  0.53404454  0.44980068     0.77400
C1660       C  0.87987877  0.66009809  0.38299411     0.79800
Cd1661     Cd  0.89568120  0.58281947  0.42020494     1.37500
O1662       O  0.93067476  0.60160062  0.47824148    -0.55200
O1663       O  0.88061339  0.65117547  0.42553970    -0.54000
C1664       C  0.93037286  0.51768062  0.38872689     0.79800
O1665       O  0.88253469  0.63232086  0.35809371    -0.56400
O1666       O  0.95143271  0.60466742  0.40887356    -0.54800
O1667       O  0.84512381  0.54928239  0.40927901    -0.54800
O1668       O  0.93437124  0.52918618  0.42700056    -0.54000
C1669       C  0.67981699  0.43674639  0.45107066    -0.08200
C1670       C  0.66406266  0.47319567  0.45113394    -0.02100
C1671       C  0.68108103  0.50768497  0.45344719    -0.08200
C1672       C  0.71535376  0.50611777  0.45351245     0.12700
C1673       C  0.73188608  0.46955768  0.45246499     0.00000
C1674       C  0.71407866  0.43479994  0.45106798     0.12500
C1675       C  0.73094057  0.39902321  0.45017637    -0.10000
C1676       C  0.76467225  0.39713191  0.45153208    -0.10000
C1677       C  0.78263121  0.43086179  0.45462749     0.12500
C1678       C  0.76619580  0.46751353  0.45484239     0.00000
C1679       C  0.73348308  0.54000746  0.45490233    -0.10100
C1680       C  0.76728224  0.53813415  0.45593320    -0.10100
C1681       C  0.78404673  0.50219418  0.45670498     0.12700
C1682       C  0.81816787  0.49986776  0.45974239    -0.08200
C1683       C  0.83355690  0.46312297  0.46207076    -0.02100
C1684       C  0.81660650  0.42891560  0.45805199    -0.08200
H1685       H  0.71808488  0.37219951  0.44835614     0.10000
H1686       H  0.77656185  0.36883905  0.45118222     0.10000
H1687       H  0.72157755  0.56830798  0.45504608     0.10200
H1688       H  0.78018919  0.56499291  0.45726897     0.10200
H1689       H  0.63773626  0.47425281  0.45413810     0.06600
H1690       H  0.85984276  0.46159480  0.46203742     0.06600
O1691       O  0.57031700  0.33159103  0.43595883    -0.55200
C1692       C  0.65880756  0.40212653  0.46201012     0.77400
O1693       O  0.58816347  0.39556230  0.38611137    -0.56400
C1694       C  0.54517469  0.32796843  0.46323449     0.77400
C1695       C  0.62368368  0.27446035  0.35769449     0.79800
Cd1696     Cd  0.60416213  0.35204455  0.32706701     1.37500
O1697       O  0.64004220  0.39089732  0.43384652    -0.55200
O1698       O  0.62243765  0.28609980  0.48393407    -0.54000
C1699       C  0.57010459  0.41683477  0.36024613     0.79800
O1700       O  0.61976952  0.30011070  0.38544376    -0.56400
O1701       O  0.65664589  0.38216533  0.33555925    -0.54800
O1702       O  0.54851026  0.33151228  0.33886417    -0.54800
O1703       O  0.56638868  0.40623061  0.32144758    -0.54000
O1704       O  0.85561511  0.37876563  0.30994525    -0.55200
C1705       C  0.95364233  0.32844374  0.45423463     0.77400
O1706       O  0.88020548  0.29692918  0.37192012    -0.56400
C1707       C  0.83680756  0.39446177  0.44831583     0.77400
C1708       C  0.91918192  0.41844996  0.37342002     0.79800
Cd1709     Cd  0.89210523  0.34903067  0.41999588     1.37500
O1710       O  0.92684784  0.33571845  0.31271291    -0.55200
O1711       O  0.92301432  0.40781139  0.41500081    -0.54000
C1712       C  0.87813296  0.27105049  0.40589403     0.79800
O1713       O  0.90451355  0.39525065  0.35171339    -0.56400
O1714       O  0.94939453  0.33206496  0.41201562    -0.54800
O1715       O  0.84054086  0.38478397  0.40827041    -0.54800
O1716       O  0.87872384  0.28258729  0.44497359    -0.54000
C1717       C  0.51305770  0.32062373  0.44725000    -0.13800
C1718       C  0.98611136  0.32237707  0.47148258    -0.29000
H1719       H  0.51143016  0.31647606  0.41176902     0.15200
H1720       H  0.98585327  0.32849292  0.34034109     0.15800
C1721       C  0.94440299  0.48016551  0.37802707    -0.13800
C1722       C  0.92808300  0.45785176  0.35325560    -0.29000
H1723       H  0.96005664  0.46599678  0.40319704     0.15200
H1724       H  0.91287533  0.47129833  0.32720417     0.15800
C1725       C  0.57312189  0.47699468  0.39540224    -0.13800
C1726       C  0.55647891  0.45452021  0.37120248    -0.29000
H1727       H  0.58913319  0.46370946  0.42042048     0.15200
H1728       H  0.54032346  0.46863719  0.34668882     0.15800
C1729       C  0.51293808  0.61597281  0.44370349    -0.13800
C1730       C  0.98711114  0.61686862  0.46615237    -0.29000
H1731       H  0.51129484  0.61707100  0.40728069     0.15200
H1732       H  0.98868947  0.61916828  0.50208153     0.15800
C1733       C  0.87638701  0.22909785  0.40096019    -0.13800
C1734       C  0.88884404  0.20305884  0.43261724    -0.29000
H1735       H  0.86535506  0.21964709  0.37177705     0.15200
H1736       H  0.90048599  0.21331866  0.46088343     0.15800
C1737       C  0.62396627  0.20438065  0.34794902    -0.13800
C1738       C  0.62981429  0.23314918  0.37356499    -0.29000
H1739       H  0.61550984  0.21131895  0.31419805     0.15200
H1740       H  0.63889242  0.22621850  0.40692202     0.15800
C1741       C  0.74854451  0.12247953  0.42754376    -0.13800
C1742       C  0.76319322  0.10136075  0.46133934    -0.29000
H1743       H  0.76314248  0.13985275  0.40117828     0.15200
H1744       H  0.74902902  0.08162647  0.48575074     0.15800
C1745       C  0.87708212  0.70092552  0.36291209    -0.13800
C1746       C  0.88431363  0.73105512  0.38570914    -0.29000
H1747       H  0.87023839  0.70621251  0.32803778     0.15200
H1748       H  0.89146744  0.72573548  0.42045579     0.15800
C1749       C  0.83967321  0.95867128  0.37941610    -0.13800
C1750       C  0.84802135  0.99321029  0.35657138    -0.29000
H1751       H  0.83086914  0.95715022  0.41488257     0.15200
H1752       H  0.86235837  0.99333782  0.49052919     0.15800
C1753       C  0.61810339  0.73548666  0.49109554    -0.13800
C1754       C  0.62822732  0.70629087  0.52114172    -0.29000
H1755       H  0.60553020  0.72872649  0.46185320     0.15200
H1756       H  0.63970127  0.71264345  0.55143973     0.15800
C1757       C  0.68195434  0.97153014  0.47454220    -0.13800
C1758       C  0.69795306  0.98628343  0.50648644    -0.29000
H1759       H  0.66809674  0.99055475  0.45123929     0.15200
H1760       H  0.71145491  0.96686098  0.53007971     0.15800
C1761       C  0.76753229  0.83234075  0.46657067    -0.13800
C1762       C  0.74528990  0.82183110  0.50070888    -0.29000
H1763       H  0.76005739  0.84211625  0.43272589     0.15200
H1764       H  0.75313969  0.80879805  0.36719879     0.15800
O1765       O  0.69100532  0.82598001  0.53237026    -0.55200
C1766       C  0.60095891  0.89010825  0.56540343     0.77400
O1767       O  0.65977342  0.91776008  0.61672203    -0.56400
C1768       C  0.70921648  0.83107108  0.66443397     0.77400
C1769       C  0.62281993  0.77970684  0.66052960     0.79800
Cd1770     Cd  0.64274974  0.85872983  0.66290672     1.37500
O1771       O  0.62704570  0.87498281  0.57791942    -0.55200
O1772       O  0.63914729  0.78960209  0.69199695    -0.54000
C1773       C  0.67170430  0.93259925  0.64904667     0.79800
O1774       O  0.61365556  0.80683575  0.63160392    -0.56400
O1775       O  0.59073705  0.88501217  0.69255294    -0.54800
O1776       O  0.69763816  0.84561759  0.62780293    -0.54800
O1777       O  0.67251235  0.91168580  0.68678129    -0.54000
O1778       O  0.82383746  0.83970963  0.61281135    -0.55200
C1779       C  0.92559173  0.88913807  0.63095446     0.77400
O1780       O  0.85397484  0.89166788  0.55698405    -0.56400
C1781       C  0.80108003  0.83688413  0.64404335     0.77400
C1782       C  0.87996127  0.77251844  0.53350726     0.79800
Cd1783     Cd  0.86729910  0.85066434  0.49649544     1.37500
O1784       O  0.90532456  0.87911135  0.60398440    -0.55200
O1785       O  0.87704359  0.78225229  0.66049395    -0.54000
C1786       C  0.84903272  0.92222393  0.53045183     0.79800
O1787       O  0.87950624  0.80032824  0.55848079    -0.56400
O1788       O  0.92303007  0.87470868  0.49964408    -0.54800
O1789       O  0.80981460  0.84102515  0.51549300    -0.54800
O1790       O  0.85124643  0.91915302  0.48819213    -0.54000
C1791       C  0.58405752  0.92287442  0.58678466    -0.08200
C1792       C  0.60035571  0.95863003  0.58396567    -0.02100
C1793       C  0.58427072  0.99371599  0.59247931    -0.08200
C1794       C  0.55012738  0.99384520  0.60049242     0.12700
C1795       C  0.53303359  0.95813623  0.60310268     0.00000
C1796       C  0.55013984  0.92248219  0.59785733     0.12500
C1797       C  0.53271090  0.88743861  0.60215482    -0.10000
C1798       C  0.99841752  0.88723088  0.61147471    -0.10000
C1799       C  0.98103445  0.92247913  0.61370879     0.12500
C1800       C  0.99836745  0.95819034  0.60945780     0.00000
C1801       C  0.53249191  0.02890339  0.60367944    -0.10100
C1802       C  0.99884351  0.02897987  0.60962246    -0.10100
C1803       C  0.98126204  0.99442741  0.61059182     0.12700
C1804       C  0.94697443  0.99482804  0.61289794    -0.08200
C1805       C  0.93045813  0.95950510  0.61652093    -0.02100
C1806       C  0.94669071  0.92342850  0.61846360    -0.08200
H1807       H  0.54514403  0.85971363  0.59945434     0.10000
H1808       H  0.98587099  0.85966900  0.61486790     0.10000
H1809       H  0.54478382  0.05653584  0.60201296     0.10200
H1810       H  0.98647676  0.05678098  0.61195725     0.10200
H1811       H  0.62545830  0.96011329  0.57085367     0.06600
H1812       H  0.90408468  0.96008964  0.61933718     0.06600
O1813       O  0.61701688  0.04497153  0.61547309    -0.55200
C1814       C  0.71370564  0.10605595  0.59851313     0.77400
O1815       O  0.66161979  0.04629265  0.67256282    -0.56400
C1816       C  0.60372618  0.02992315  0.58412647     0.77400
C1817       C  0.63480169  0.16383857  0.53020771     0.79800
Cd1818     Cd  0.65517456  0.08623236  0.56083979     1.37500
O1819       O  0.68775923  0.10110632  0.62367881    -0.55200
O1820       O  0.63127033  0.15039587  0.57173097    -0.54000
C1821       C  0.68777051  0.02412216  0.52112703     0.79800
O1822       O  0.64518468  0.14033607  0.50220429    -0.56400
O1823       O  0.71155200  0.10511097  0.55614150    -0.54800
O1824       O  0.61044147  0.04511373  0.54399710    -0.54800
O1825       O  0.69572063  0.03373768  0.55879585    -0.54000
O1826       O  0.81203647  0.08726190  0.63571707    -0.55200
C1827       C  0.92614034  0.03026302  0.61302393     0.77400
O1828       O  0.86798835  0.05833582  0.53054888    -0.56400
C1829       C  0.80487491  0.10963608  0.60067372     0.77400
C1830       C  0.88993429  0.16138279  0.60304523     0.79800
Cd1831     Cd  0.87005011  0.08183592  0.60862613     1.37500
O1832       O  0.91032567  0.03848248  0.48002059    -0.55200
O1833       O  0.88897627  0.13951059  0.64011318    -0.54800
C1834       C  0.85252514  0.02908508  0.54757670     0.79800
O1835       O  0.88607430  0.14526670  0.56752515    -0.56400
O1836       O  0.92352807  0.05464319  0.57814536    -0.54800
O1837       O  0.82791161  0.12047302  0.57219448    -0.54800
O1838       O  0.84015312  0.02930892  0.58776595    -0.54000
O1839       O  0.64307803  0.56278275  0.60307681    -0.55200
C1840       C  0.54521116  0.61046434  0.62613260     0.77400
O1841       O  0.59316152  0.54117088  0.56619307    -0.56400
C1842       C  0.66158941  0.54517275  0.63124113     0.77400
C1843       C  0.62324248  0.66517753  0.51396356     0.79800
Cd1844     Cd  0.60616394  0.59017243  0.66175439     1.37500
O1845       O  0.57021611  0.60634507  0.59957492    -0.55200
O1846       O  0.61740148  0.65863293  0.63932935    -0.54000
C1847       C  0.57883406  0.51816524  0.54373919     0.79800
O1848       O  0.62185726  0.63797839  0.54653251    -0.56400
O1849       O  0.54946971  0.60790556  0.50373582    -0.54800
O1850       O  0.65795748  0.55021589  0.50602391    -0.54800
O1851       O  0.57474033  0.52977857  0.50251839    -0.54000
O1852       O  0.86317540  0.53994385  0.64286324    -0.55200
C1853       C  0.95463479  0.60794478  0.61618093     0.77400
O1854       O  0.91003723  0.53840197  0.52511055    -0.56400
C1855       C  0.84046392  0.53485238  0.61737602     0.77400
C1856       C  0.87912194  0.66068379  0.54867337     0.79800
Cd1857     Cd  0.89560967  0.58300603  0.58425571     1.37500
O1858       O  0.92909346  0.60477854  0.64269566    -0.55200
O1859       O  0.88143257  0.65127094  0.59088492    -0.54000
C1860       C  0.92956580  0.51821094  0.54968997     0.79800
O1861       O  0.88122764  0.63328320  0.52314442    -0.56400
O1862       O  0.95198940  0.60141155  0.57529588    -0.54800
O1863       O  0.84034071  0.55691026  0.58040457    -0.54800
O1864       O  0.93415701  0.52938807  0.58789618    -0.54000
C1865       C  0.67941602  0.43992375  0.61803154    -0.08200
C1866       C  0.66418944  0.47673077  0.61658274    -0.02100
C1867       C  0.68150587  0.51076405  0.62016123    -0.08200
C1868       C  0.71567633  0.50854335  0.62171550     0.12700
C1869       C  0.73179735  0.47170638  0.62102415     0.00000
C1870       C  0.71357605  0.43724404  0.61983260     0.12500
C1871       C  0.72996439  0.40105772  0.62032512    -0.10000
C1872       C  0.76370621  0.39863736  0.62130721    -0.10000
C1873       C  0.78217056  0.43222962  0.62271497     0.12500
C1874       C  0.76612119  0.46914505  0.62300817     0.00000
C1875       C  0.73411817  0.54208655  0.62364175    -0.10100
C1876       C  0.76790580  0.53970751  0.62445478    -0.10100
C1877       C  0.78436363  0.50358812  0.62435537     0.12700
C1878       C  0.81854718  0.50081393  0.62626944    -0.08200
C1879       C  0.83367101  0.46392565  0.62774451    -0.02100
C1880       C  0.81627746  0.42990602  0.62448789    -0.08200
H1881       H  0.71678210  0.37434979  0.61927016     0.10000
H1882       H  0.77525486  0.37011015  0.62155693     0.10000
H1883       H  0.72250309  0.57054244  0.62394997     0.10200
H1884       H  0.78104441  0.56636344  0.62598463     0.10200
H1885       H  0.63785326  0.47840654  0.61771416     0.06600
H1886       H  0.86000352  0.46208527  0.62683636     0.06600
O1887       O  0.57029620  0.33291947  0.60277058    -0.55200
C1888       C  0.65780398  0.40576946  0.62825187     0.77400
O1889       O  0.58664333  0.39615777  0.55218017    -0.56400
C1890       C  0.54538178  0.32797060  0.63029925     0.77400
C1891       C  0.62410561  0.27488655  0.52587725     0.79800
Cd1892     Cd  0.60455805  0.35247781  0.49368712     1.37500
O1893       O  0.63754699  0.39676012  0.60078725    -0.55200
O1894       O  0.62344161  0.28938790  0.65130134    -0.54000
C1895       C  0.57004747  0.41813591  0.52501908     0.79800
O1896       O  0.61935490  0.30063024  0.55335687    -0.56400
O1897       O  0.65563718  0.38573852  0.50234817    -0.54800
O1898       O  0.54851019  0.33334097  0.50434371    -0.54800
O1899       O  0.56825375  0.40822430  0.48542365    -0.54000
O1900       O  0.85480395  0.37720146  0.47743089    -0.55200
C1901       C  0.95330287  0.33169590  0.62122842     0.77400
O1902       O  0.88149736  0.29694044  0.53959970    -0.56400
C1903       C  0.83608591  0.39503862  0.61488050     0.77400
C1904       C  0.91880237  0.41899632  0.53673555     0.79800
Cd1905     Cd  0.89194812  0.35041439  0.58617987     1.37500
O1906       O  0.92885623  0.33261962  0.48112102    -0.55200
O1907       O  0.92217882  0.41006033  0.57876364    -0.54000
C1908       C  0.88150329  0.27126806  0.57374910     0.79800
O1909       O  0.90478027  0.39448273  0.51608659    -0.56400
O1910       O  0.94911144  0.33385338  0.57905329    -0.54800
O1911       O  0.83890797  0.38421285  0.57527911    -0.54800
O1912       O  0.88188121  0.28330913  0.61257767    -0.54000
C1913       C  0.51342936  0.31954349  0.61451642    -0.13800
C1914       C  0.98573959  0.32625186  0.63852876    -0.29000
H1915       H  0.51172697  0.31704434  0.57866952     0.15200
H1916       H  0.98806577  0.32334128  0.50749554     0.15800
C1917       C  0.94410998  0.48115260  0.53803673    -0.13800
C1918       C  0.92744740  0.45798692  0.51477301    -0.29000
H1919       H  0.96060525  0.46755019  0.56243602     0.15200
H1920       H  0.91162297  0.47073322  0.48916782     0.15800
C1921       C  0.57103056  0.47780977  0.56212154    -0.13800
C1922       C  0.55575868  0.45560557  0.53589240    -0.29000
H1923       H  0.58619281  0.46424012  0.58811257     0.15200
H1924       H  0.54048776  0.46993248  0.51035329     0.15800
C1925       C  0.51276926  0.61586890  0.60862705    -0.13800
C1926       C  0.98640826  0.61612158  0.63277467    -0.29000
H1927       H  0.51103207  0.61663453  0.57238032     0.15200
H1928       H  0.98767205  0.61915995  0.66862652     0.15800
C1929       C  0.88208727  0.22915654  0.56909010    -0.13800
C1930       C  0.89322933  0.20372158  0.60245326    -0.29000
H1931       H  0.87344221  0.21901713  0.53863541     0.15200
H1932       H  0.90191502  0.21434931  0.63265415     0.15800
C1933       C  0.62775994  0.20502718  0.51496540    -0.13800
C1934       C  0.63060406  0.23363007  0.54194680    -0.29000
H1935       H  0.62131151  0.21216967  0.48006282     0.15200
H1936       H  0.63753876  0.22653448  0.57668108     0.15800
C1937       C  0.74548043  0.10901676  0.61761496    -0.13800
C1938       C  0.77139142  0.12029543  0.59011307    -0.29000
H1939       H  0.74840726  0.09673734  0.65246245     0.15200
H1940       H  0.76791023  0.13341164  0.55568855     0.15800
C1941       C  0.87528938  0.70171013  0.52971397    -0.13800
C1942       C  0.88252331  0.73148604  0.55310601    -0.29000
H1943       H  0.86794249  0.70748572  0.49511898     0.15200
H1944       H  0.88991951  0.72570132  0.58769665     0.15800
C1945       C  0.84219203  0.95964918  0.54835012    -0.13800
C1946       C  0.85140898  0.99343393  0.52465775    -0.29000
H1947       H  0.83310823  0.95903909  0.58359283     0.15200
H1948       H  0.85671820  0.99513921  0.65570171     0.15800
C1949       C  0.61597811  0.73850870  0.65628476    -0.13800
C1950       C  0.62539876  0.70910503  0.68654085    -0.29000
H1951       H  0.60407706  0.73208739  0.62633234     0.15200
H1952       H  0.63621900  0.71524282  0.71741073     0.15800
C1953       C  0.68018764  0.97376328  0.64465407    -0.13800
C1954       C  0.69471840  0.98862992  0.67788053    -0.29000
H1955       H  0.66672003  0.99264191  0.62073201     0.15200
H1956       H  0.70813541  0.96948396  0.70184797     0.15800
C1957       C  0.76667790  0.83318461  0.63438499    -0.13800
C1958       C  0.74414778  0.82260976  0.66818421    -0.29000
H1959       H  0.75940851  0.84352080  0.60058911     0.15200
H1960       H  0.75325756  0.81156386  0.53418854     0.15800
O1961       O  0.68955902  0.82650106  0.69915207    -0.55200
C1962       C  0.59844381  0.89210495  0.73158160     0.77400
O1963       O  0.65698535  0.91641689  0.78138795    -0.56400
C1964       C  0.70888395  0.83208589  0.83138488     0.77400
C1965       C  0.62382280  0.77858130  0.82793925     0.79800
Cd1966     Cd  0.64179151  0.85846343  0.82991870     1.37500
O1967       O  0.62415538  0.87618551  0.74509161    -0.55200
O1968       O  0.64021227  0.78899170  0.85902795    -0.54000
C1969       C  0.67010492  0.93190934  0.81227762     0.79800
O1970       O  0.61378401  0.80543361  0.79937208    -0.56400
O1971       O  0.59022345  0.88447245  0.86164970    -0.54800
O1972       O  0.69678467  0.84492255  0.79448244    -0.54800
O1973       O  0.67203858  0.91187301  0.85041390    -0.54000
O1974       O  0.82326591  0.83914720  0.77821008    -0.55200
C1975       C  0.92441270  0.88962183  0.79309737     0.77400
O1976       O  0.85150249  0.89370631  0.72494332    -0.56400
C1977       C  0.80073627  0.83705804  0.80975294     0.77400
C1978       C  0.87894421  0.77319636  0.70291150     0.79800
Cd1979     Cd  0.86628367  0.85134244  0.66586955     1.37500
O1980       O  0.90452213  0.87752774  0.76694354    -0.55200
O1981       O  0.87463712  0.78111662  0.82448061    -0.54000
C1982       C  0.84701214  0.92391229  0.69767902     0.79800
O1983       O  0.87780462  0.80097514  0.72796095    -0.56400
O1984       O  0.92198310  0.87448141  0.67202371    -0.54800
O1985       O  0.80895874  0.83950178  0.68416377    -0.54800
O1986       O  0.85046632  0.92018002  0.65561950    -0.54000
C1987       C  0.58056801  0.92453030  0.75309319    -0.08200
C1988       C  0.59653720  0.96044916  0.75165494    -0.02100
C1989       C  0.57998828  0.99545945  0.75971397    -0.08200
C1990       C  0.54573762  0.99538802  0.76631158     0.12700
C1991       C  0.52883825  0.95970681  0.76734782     0.00000
C1992       C  0.54627836  0.92413625  0.76211448     0.12500
C1993       C  0.52882311  0.88918841  0.76481735    -0.10000
C1994       C  0.99690570  0.88907887  0.77175130    -0.10000
C1995       C  0.97906326  0.92404843  0.77353618     0.12500
C1996       C  0.99592057  0.96006343  0.76928938     0.00000
C1997       C  0.52786899  0.03026654  0.77002756    -0.10100
C1998       C  0.99542190  0.03095737  0.76832047    -0.10100
C1999       C  0.97828929  0.99602723  0.76976297     0.12700
C2000       C  0.94395359  0.99575233  0.77264842    -0.08200
C2001       C  0.92794437  0.96004738  0.77687357    -0.02100
C2002       C  0.94473672  0.92429192  0.77872583    -0.08200
H2003       H  0.54135673  0.86155985  0.76187862     0.10000
H2004       H  0.98469017  0.86131319  0.77477739     0.10000
H2005       H  0.54003522  0.05785584  0.76963768     0.10200
H2006       H  0.98268223  0.05865749  0.76947246     0.10200
H2007       H  0.62191271  0.96214982  0.73998302     0.06600
H2008       H  0.90159202  0.96006043  0.78068461     0.06600
O2009       O  0.61082783  0.04789817  0.78453347    -0.55200
C2010       C  0.70980009  0.10734296  0.76947303     0.77400
O2011       O  0.65855269  0.04293397  0.83777804    -0.56400
C2012       C  0.59928008  0.03192485  0.75238623     0.77400
C2013       C  0.63129461  0.16688766  0.70017499     0.79800
Cd2014     Cd  0.65072855  0.08878267  0.73155366     1.37500
O2015       O  0.68410301  0.10074816  0.79473817    -0.55200
O2016       O  0.62855207  0.15415037  0.74195816    -0.54000
C2017       C  0.68369131  0.02631678  0.69220462     0.79800
O2018       O  0.64008926  0.14251876  0.67242005    -0.56400
O2019       O  0.70724633  0.10881739  0.72686507    -0.54800
O2020       O  0.60754236  0.04652496  0.71247982    -0.54800
O2021       O  0.69322018  0.03803957  0.72795477    -0.54000
O2022       O  0.80841648  0.08499036  0.80253158    -0.55200
C2023       C  0.92273315  0.03083947  0.77438730     0.77400
O2024       O  0.86287665  0.06096790  0.69540130    -0.56400
C2025       C  0.80106988  0.11156196  0.77151048     0.77400
C2026       C  0.88740316  0.16238245  0.76898293     0.79800
Cd2027     Cd  0.86660646  0.08280542  0.77462678     1.37500
O2028       O  0.90633603  0.03418928  0.64659241    -0.55200
O2029       O  0.88711202  0.14031346  0.80591403    -0.54800
C2030       C  0.84706289  0.03180629  0.71222473     0.79800
O2031       O  0.88231008  0.14647634  0.73374212    -0.56400
O2032       O  0.91779610  0.05432554  0.73946753    -0.54800
O2033       O  0.82409738  0.12610434  0.74529854    -0.54800
O2034       O  0.83530552  0.03172861  0.75282890    -0.54000
O2035       O  0.64214822  0.56019672  0.76972505    -0.55200
C2036       C  0.54529323  0.60846810  0.79376240     0.77400
O2037       O  0.59242556  0.54401702  0.73045901    -0.56400
C2038       C  0.66137620  0.54335411  0.79735830     0.77400
C2039       C  0.62090768  0.66803809  0.67881391     0.79800
Cd2040     Cd  0.60698739  0.58935603  0.82903631     1.37500
O2041       O  0.57062865  0.60663727  0.76728373    -0.55200
O2042       O  0.61962817  0.65743317  0.80679948    -0.54000
C2043       C  0.57858105  0.52031819  0.70845825     0.79800
O2044       O  0.62017467  0.64058588  0.71108709    -0.56400
O2045       O  0.54915079  0.60722841  0.66842827    -0.54800
O2046       O  0.65832166  0.55418233  0.67160451    -0.54800
O2047       O  0.57508495  0.53092862  0.66681954    -0.54000
O2048       O  0.85880833  0.54514484  0.81160931    -0.55200
C2049       C  0.95455248  0.60693778  0.78460508     0.77400
O2050       O  0.91284136  0.54119892  0.69326976    -0.56400
C2051       C  0.83991007  0.53482935  0.78304367     0.77400
C2052       C  0.87850482  0.66136103  0.71799132     0.79800
Cd2053     Cd  0.89525131  0.58349947  0.75286708     1.37500
O2054       O  0.92935466  0.60294944  0.81170923    -0.55200
O2055       O  0.88056849  0.65172743  0.76019077    -0.54000
C2056       C  0.93015063  0.51922726  0.71940913     0.79800
O2057       O  0.88089308  0.63413202  0.69229627    -0.56400
O2058       O  0.95143498  0.60173084  0.74342315    -0.54800
O2059       O  0.84371196  0.55140243  0.74287531    -0.54800
O2060       O  0.93239804  0.52846876  0.75917240    -0.54000
C2061       C  0.67975219  0.43786377  0.78535982    -0.08200
C2062       C  0.66419597  0.47452087  0.78369124    -0.02100
C2063       C  0.68128577  0.50889746  0.78653588    -0.08200
C2064       C  0.71542176  0.50708161  0.78827223     0.12700
C2065       C  0.73181406  0.47042654  0.78797865     0.00000
C2066       C  0.71393251  0.43570678  0.78669100     0.12500
C2067       C  0.73066650  0.39978906  0.78672210    -0.10000
C2068       C  0.76438239  0.39783488  0.78808159    -0.10000
C2069       C  0.78243783  0.43164985  0.79021714     0.12500
C2070       C  0.76608909  0.46833056  0.79038021     0.00000
C2071       C  0.73356384  0.54091363  0.79010390    -0.10100
C2072       C  0.76733464  0.53897630  0.79122252    -0.10100
C2073       C  0.78404177  0.50303624  0.79157953     0.12700
C2074       C  0.81824075  0.50072151  0.79330441    -0.08200
C2075       C  0.83364800  0.46404980  0.79510574    -0.02100
C2076       C  0.81649609  0.42981827  0.79217637    -0.08200
H2077       H  0.71776558  0.37295521  0.78516653     0.10000
H2078       H  0.77623295  0.36949653  0.78803950     0.10000
H2079       H  0.72174312  0.56927569  0.79003396     0.10200
H2080       H  0.78029620  0.56581556  0.79246203     0.10200
H2081       H  0.63784625  0.47585276  0.78520188     0.06600
H2082       H  0.85999607  0.46255723  0.79397661     0.06600
O2083       O  0.56970725  0.33672149  0.77091256    -0.55200
C2084       C  0.65850367  0.40345300  0.79647546     0.77400
O2085       O  0.58733337  0.39947214  0.71891111    -0.56400
C2086       C  0.54443876  0.33267982  0.79786749     0.77400
C2087       C  0.62396403  0.27837369  0.69347889     0.79800
Cd2088     Cd  0.60396942  0.35532380  0.66036132     1.37500
O2089       O  0.63865131  0.39334069  0.76907971    -0.55200
O2090       O  0.61919342  0.28711057  0.81896571    -0.54000
C2091       C  0.56887871  0.42002149  0.69293273     0.79800
O2092       O  0.61838663  0.30422782  0.72062622    -0.56400
O2093       O  0.65596653  0.38723911  0.66756361    -0.54800
O2094       O  0.54866478  0.33337563  0.67139767    -0.54800
O2095       O  0.56531805  0.40879658  0.65438441    -0.54000
O2096       O  0.85500130  0.37886576  0.64340743    -0.55200
C2097       C  0.95354414  0.33226888  0.78845566     0.77400
O2098       O  0.88178554  0.29818669  0.70563642    -0.56400
C2099       C  0.83644755  0.39553763  0.78150804     0.77400
C2100       C  0.91878239  0.42049361  0.70484194     0.79800
Cd2101     Cd  0.89215982  0.35120974  0.75295839     1.37500
O2102       O  0.92851190  0.33663634  0.64783726    -0.55200
O2103       O  0.92327873  0.41026539  0.74633847    -0.54000
C2104       C  0.88025980  0.27252401  0.73983459     0.79800
O2105       O  0.90367442  0.39701803  0.68407348    -0.56400
O2106       O  0.94957451  0.33429725  0.74621457    -0.54800
O2107       O  0.84098281  0.38754180  0.74086916    -0.54800
O2108       O  0.88000700  0.28451758  0.77872297    -0.54000
C2109       C  0.51250104  0.32619329  0.78097486    -0.13800
C2110       C  0.98584154  0.32679116  0.80636304    -0.29000
H2111       H  0.51104912  0.32581890  0.74483557     0.15200
H2112       H  0.98778002  0.32775231  0.67451260     0.15800
C2113       C  0.94453175  0.48229054  0.70727650    -0.13800
C2114       C  0.92749421  0.45973058  0.68371630    -0.29000
H2115       H  0.96080214  0.46817520  0.73165356     0.15200
H2116       H  0.91160041  0.47304674  0.65846249     0.15800
C2117       C  0.57057587  0.48039365  0.72823366    -0.13800
C2118       C  0.55467499  0.45763215  0.70342988    -0.29000
H2119       H  0.58597251  0.46727185  0.75419525     0.15200
H2120       H  0.53893608  0.47152022  0.67821283     0.15800
C2121       C  0.51288571  0.61316789  0.77586432    -0.13800
C2122       C  0.98644897  0.61481305  0.80071881    -0.29000
H2123       H  0.51131717  0.61223959  0.73977689     0.15200
H2124       H  0.98795583  0.61759450  0.83645477     0.15800
C2125       C  0.87991609  0.23041658  0.73527740    -0.13800
C2126       C  0.89132541  0.20471168  0.76821938    -0.29000
H2127       H  0.87040033  0.22050111  0.70525303     0.15200
H2128       H  0.90099876  0.21518322  0.79782041     0.15800
C2129       C  0.62525501  0.20821101  0.68430129    -0.13800
C2130       C  0.62980678  0.23713511  0.71026175    -0.29000
H2131       H  0.61808335  0.21513898  0.64967691     0.15200
H2132       H  0.63708138  0.23032798  0.74488184     0.15800
C2133       C  0.74174828  0.10892677  0.78856871    -0.13800
C2134       C  0.76740728  0.12302263  0.76238550    -0.29000
H2135       H  0.74514183  0.09325849  0.82175930     0.15200
H2136       H  0.76360647  0.13941310  0.72964736     0.15800
C2137       C  0.87461200  0.70239570  0.69913650    -0.13800
C2138       C  0.88174262  0.73219265  0.72252316    -0.29000
H2139       H  0.86733641  0.70817170  0.66448361     0.15200
H2140       H  0.88925372  0.72644881  0.75704884     0.15800
C2141       C  0.83911356  0.96158455  0.71473509    -0.13800
C2142       C  0.84632923  0.99562079  0.68993102    -0.29000
H2143       H  0.83079192  0.96115997  0.75025150     0.15200
H2144       H  0.85527124  0.99509388  0.82059399     0.15800
C2145       C  0.61769247  0.73721707  0.82372474    -0.13800
C2146       C  0.62715390  0.70795142  0.85411351    -0.29000
H2147       H  0.60585256  0.73058705  0.79382672     0.15200
H2148       H  0.63769738  0.71418932  0.88514732     0.15800
C2149       C  0.67867240  0.97292911  0.80613128    -0.13800
C2150       C  0.69462884  0.98817525  0.83774095    -0.29000
H2151       H  0.66366763  0.99141068  0.78382359     0.15200
H2152       H  0.70971465  0.96950691  0.85997467     0.15800
C2153       C  0.76619923  0.83393827  0.80061312    -0.13800
C2154       C  0.74385791  0.82363687  0.83472401    -0.29000
H2155       H  0.75874074  0.84440610  0.76696207     0.15200
H2156       H  0.75184033  0.81180441  0.70165142     0.15800
O2157       O  0.68963446  0.82894063  0.86657657    -0.55200
C2158       C  0.59870033  0.89155259  0.90031399     0.77400
O2159       O  0.65960004  0.91724373  0.95009515    -0.56400
C2160       C  0.70947244  0.83035177  0.99809982     0.77400
C2161       C  0.62321239  0.77889960  0.99624591     0.79800
Cd2162     Cd  0.64282589  0.85847859  0.99716709     1.37500
O2163       O  0.62473344  0.87584056  0.91271115    -0.55200
O2164       O  0.64098718  0.78890449  0.02606238    -0.54000
C2165       C  0.67237204  0.93203189  0.98183675     0.79800
O2166       O  0.61276999  0.80600916  0.96830400    -0.56400
O2167       O  0.59116179  0.88406403  0.02819467    -0.54800
O2168       O  0.69766160  0.84485439  0.96158709    -0.54800
O2169       O  0.67334422  0.91137534  0.01974181    -0.54000
O2170       O  0.82337926  0.83968069  0.94394929    -0.55200
C2171       C  0.92465814  0.88971710  0.96106500     0.77400
O2172       O  0.85217744  0.89319579  0.88963274    -0.56400
C2173       C  0.80122147  0.83485915  0.97587275     0.77400
C2174       C  0.87839708  0.77201498  0.86643967     0.79800
Cd2175     Cd  0.86614244  0.85077904  0.83018571     1.37500
O2176       O  0.90513405  0.87827430  0.93391857    -0.55200
O2177       O  0.87793199  0.78286803  0.99042932    -0.54000
C2178       C  0.84617784  0.92311605  0.86257496     0.79800
O2179       O  0.87941812  0.79987612  0.89114432    -0.56400
O2180       O  0.92108872  0.87653818  0.83474787    -0.54800
O2181       O  0.80897959  0.83987869  0.84967358    -0.54800
O2182       O  0.84833646  0.91916108  0.82052375    -0.54000
C2183       C  0.58111870  0.92361495  0.92283508    -0.08200
C2184       C  0.59723638  0.95931327  0.92191094    -0.02100
C2185       C  0.58078892  0.99431149  0.93010312    -0.08200
C2186       C  0.54654660  0.99446528  0.93684929     0.12700
C2187       C  0.52954148  0.95890367  0.93779062     0.00000
C2188       C  0.54687545  0.92332367  0.93221761     0.12500
C2189       C  0.52935506  0.88847064  0.93473257    -0.10000
C2190       C  0.99704331  0.88894205  0.94014410    -0.10000
C2191       C  0.97934509  0.92398039  0.94225904     0.12500
C2192       C  0.99625797  0.95995735  0.93785717     0.00000
C2193       C  0.52878398  0.02944790  0.94050120    -0.10100
C2194       C  0.99599733  0.03077975  0.93772768    -0.10100
C2195       C  0.97873329  0.99594951  0.93916801     0.12700
C2196       C  0.94438768  0.99570082  0.94306439    -0.08200
C2197       C  0.92838817  0.96004353  0.94757895    -0.02100
C2198       C  0.94509203  0.92435341  0.94810629    -0.08200
H2199       H  0.54183124  0.86082476  0.93166527     0.10000
H2200       H  0.98477534  0.86119393  0.94356676     0.10000
H2201       H  0.54105717  0.05695186  0.94027030     0.10200
H2202       H  0.98334391  0.05843313  0.93982433     0.10200
H2203       H  0.62258294  0.96098136  0.91000326     0.06600
H2204       H  0.90205743  0.96005644  0.95189303     0.06600
O2205       O  0.61305901  0.04653916  0.95199878    -0.55200
C2206       C  0.70961101  0.10638717  0.93399047     0.77400
O2207       O  0.65972038  0.04277956  0.00659931    -0.56400
C2208       C  0.60001724  0.03056606  0.92110058     0.77400
C2209       C  0.62829029  0.16441906  0.86614512     0.79800
Cd2210     Cd  0.65066861  0.08708239  0.89601986     1.37500
O2211       O  0.68403712  0.09836503  0.95895238    -0.55200
O2212       O  0.62627231  0.15116079  0.90775139    -0.54000
C2213       C  0.68295596  0.02493818  0.85379971     0.79800
O2214       O  0.63776245  0.14081914  0.83788694    -0.56400
O2215       O  0.70697316  0.10941183  0.89133307    -0.54800
O2216       O  0.60682677  0.04480255  0.88065347    -0.54800
O2217       O  0.69464734  0.03792817  0.88740470    -0.54000
O2218       O  0.80810608  0.08585724  0.96985013    -0.55200
C2219       C  0.92293350  0.03064325  0.94410223     0.77400
O2220       O  0.86223165  0.06025541  0.86158421    -0.56400
C2221       C  0.80088496  0.11152383  0.93778493     0.77400
C2222       C  0.88727329  0.16092821  0.93625208     0.79800
Cd2223     Cd  0.86610964  0.08192434  0.94164124     1.37500
O2224       O  0.90511509  0.03552892  0.80999168    -0.55200
O2225       O  0.88584658  0.13924418  0.97348854    -0.54800
C2226       C  0.84644362  0.03101233  0.87814368     0.79800
O2227       O  0.88325046  0.14473903  0.90082822    -0.56400
O2228       O  0.91917413  0.05478643  0.90935632    -0.54800
O2229       O  0.82398934  0.12510001  0.91098134    -0.54800
O2230       O  0.83485077  0.03070844  0.91882583    -0.54000
O2231       O  0.64502890  0.56309498  0.93967626    -0.55200
C2232       C  0.54471268  0.61092263  0.95919851     0.77400
O2233       O  0.59673815  0.54305710  0.89854695    -0.56400
C2234       C  0.66047154  0.54294932  0.96980875     0.77400
C2235       C  0.62247142  0.66691255  0.84641861     0.79800
Cd2236     Cd  0.60532298  0.58993593  0.99604934     1.37500
O2237       O  0.56999698  0.60685641  0.93312709    -0.55200
O2238       O  0.61873150  0.65794200  0.97441751    -0.54000
C2239       C  0.58112571  0.51980859  0.87804440     0.79800
O2240       O  0.62068064  0.63961878  0.87882357    -0.56400
O2241       O  0.54902616  0.60360901  0.83610786    -0.54800
O2242       O  0.65931895  0.55364215  0.83716855    -0.54800
O2243       O  0.57526751  0.53087862  0.83725899    -0.54000
O2244       O  0.85600358  0.54603211  0.97835670    -0.55200
C2245       C  0.95267988  0.60703112  0.95084861     0.77400
O2246       O  0.91096604  0.53956727  0.86090028    -0.56400
C2247       C  0.83856463  0.53372406  0.94926275     0.77400
C2248       C  0.87584522  0.66021030  0.88301515     0.79800
Cd2249     Cd  0.89330164  0.58300897  0.91923104     1.37500
O2250       O  0.92775117  0.60129426  0.97816652    -0.55200
O2251       O  0.87704587  0.65090381  0.92543410    -0.54000
C2252       C  0.92845566  0.51822820  0.88744781     0.79800
O2253       O  0.87911023  0.63280008  0.85764052    -0.56400
O2254       O  0.94924305  0.60374570  0.90922982    -0.54800
O2255       O  0.84327829  0.54881832  0.90860475    -0.54800
O2256       O  0.93054685  0.52811741  0.92697724    -0.54000
C2257       C  0.67822632  0.43727079  0.95763749    -0.08200
C2258       C  0.66278777  0.47385856  0.95791004    -0.02100
C2259       C  0.68013791  0.50811190  0.95982754    -0.08200
C2260       C  0.71433806  0.50611945  0.96010504     0.12700
C2261       C  0.73057176  0.46936785  0.95885580     0.00000
C2262       C  0.71246302  0.43481240  0.95776861     0.12500
C2263       C  0.72904209  0.39885001  0.95667354    -0.10000
C2264       C  0.76288180  0.39671791  0.95632759    -0.10000
C2265       C  0.78124211  0.43037757  0.95786749     0.12500
C2266       C  0.76496166  0.46707882  0.95952183     0.00000
C2267       C  0.73268629  0.53980678  0.96147994    -0.10100
C2268       C  0.76649776  0.53767948  0.96113956    -0.10100
C2269       C  0.78305950  0.50169498  0.96028180     0.12700
C2270       C  0.81730720  0.49936970  0.95985717    -0.08200
C2271       C  0.83279104  0.46281226  0.95965320    -0.02100
C2272       C  0.81550715  0.42849889  0.95764317    -0.08200
H2273       H  0.71591351  0.37212309  0.95547144     0.10000
H2274       H  0.77461724  0.36839631  0.95524058     0.10000
H2275       H  0.72098476  0.56817918  0.96224968     0.10200
H2276       H  0.77963440  0.56444907  0.96200642     0.10200
H2277       H  0.63646613  0.47532214  0.96056545     0.06600
H2278       H  0.85912381  0.46148915  0.95667628     0.06600
O2279       O  0.56764324  0.33420170  0.93564220    -0.55200
C2280       C  0.65679695  0.40294852  0.96638787     0.77400
O2281       O  0.58798934  0.39790787  0.88873370    -0.56400
C2282       C  0.54276556  0.32850536  0.96312399     0.77400
C2283       C  0.62129581  0.27579795  0.86079363     0.79800
Cd2284     Cd  0.60409798  0.35451568  0.82938175     1.37500
O2285       O  0.63869197  0.39290426  0.93672070    -0.55200
O2286       O  0.61828922  0.28766574  0.98274695    -0.54000
C2287       C  0.57068638  0.41988898  0.86255258     0.79800
O2288       O  0.61821203  0.30176175  0.88820031    -0.56400
O2289       O  0.65635130  0.38607148  0.83640218    -0.54800
O2290       O  0.54759946  0.33668915  0.83939288    -0.54800
O2291       O  0.56780239  0.41009688  0.82317440    -0.54000
O2292       O  0.85365892  0.37692800  0.81062471    -0.55200
C2293       C  0.95282951  0.33159631  0.95431129     0.77400
O2294       O  0.88268858  0.29611058  0.87068214    -0.56400
C2295       C  0.83541522  0.39404434  0.94663956     0.77400
C2296       C  0.91919566  0.41924930  0.86967807     0.79800
Cd2297     Cd  0.89180387  0.34995084  0.91745655     1.37500
O2298       O  0.92862058  0.33746599  0.81469328    -0.55200
O2299       O  0.92547553  0.40696476  0.90996847    -0.54000
C2300       C  0.88087115  0.27079966  0.90521984     0.79800
O2301       O  0.90224440  0.39747808  0.84913542    -0.56400
O2302       O  0.94852910  0.32902547  0.91278614    -0.54800
O2303       O  0.83998945  0.38619035  0.90594770    -0.54800
O2304       O  0.87997164  0.28326681  0.94392482    -0.54000
C2305       C  0.51102099  0.32015488  0.94685459    -0.13800
C2306       C  0.98519419  0.32753533  0.97222915    -0.29000
H2307       H  0.50955897  0.31897070  0.91077698     0.15200
H2308       H  0.98772850  0.33058182  0.84185931     0.15800
C2309       C  0.94332428  0.48134988  0.87589310    -0.13800
C2310       C  0.92760615  0.45907253  0.85034801    -0.29000
H2311       H  0.95902520  0.46720345  0.90100124     0.15200
H2312       H  0.91212940  0.47262552  0.82472720     0.15800
C2313       C  0.57356097  0.47985486  0.89806936    -0.13800
C2314       C  0.55678911  0.45728471  0.87409976    -0.29000
H2315       H  0.58977083  0.46654719  0.92279349     0.15200
H2316       H  0.54044541  0.47130488  0.84978925     0.15800
C2317       C  0.51254029  0.61719544  0.94089994    -0.13800
C2318       C  0.98464776  0.61448786  0.96726828    -0.29000
H2319       H  0.51113999  0.61786055  0.90458560     0.15200
H2320       H  0.98629303  0.61516911  0.00341348     0.15800
C2321       C  0.88078644  0.22859639  0.90125493    -0.13800
C2322       C  0.89114514  0.20322662  0.93526869    -0.29000
H2323       H  0.87220470  0.21833358  0.87086985     0.15200
H2324       H  0.89965695  0.21396969  0.96548852     0.15800
C2325       C  0.62110443  0.20562121  0.85104896    -0.13800
C2326       C  0.62662859  0.23430396  0.87694918    -0.29000
H2327       H  0.61314114  0.21271447  0.81695290     0.15200
H2328       H  0.63522421  0.22718039  0.91070119     0.15800
C2329       C  0.74147685  0.10788335  0.95348761    -0.13800
C2330       C  0.76723677  0.12284002  0.92817613    -0.29000
H2331       H  0.74470514  0.09163573  0.98643079     0.15200
H2332       H  0.76361456  0.13960637  0.89561541     0.15800
C2333       C  0.87212041  0.70115602  0.86368006    -0.13800
C2334       C  0.88084224  0.73093998  0.88605113    -0.29000
H2335       H  0.86382360  0.70679897  0.82955954     0.15200
H2336       H  0.88943661  0.72511989  0.92001351     0.15800
C2337       C  0.83819108  0.96078450  0.87979665    -0.13800
C2338       C  0.84536210  0.99505399  0.85525583    -0.29000
H2339       H  0.83014455  0.96016148  0.91543271     0.15200
H2340       H  0.85342067  0.99642046  0.98679566     0.15800
C2341       C  0.61611252  0.73764904  0.99256602    -0.13800
C2342       C  0.62620153  0.70814554  0.02220664    -0.29000
H2343       H  0.60332514  0.73124488  0.96337881     0.15200
H2344       H  0.63767699  0.71412005  0.05263120     0.15800
C2345       C  0.68180382  0.97293088  0.97660783    -0.13800
C2346       C  0.69572567  0.98799737  0.01026826    -0.29000
H2347       H  0.66917222  0.99187651  0.95170486     0.15200
H2348       H  0.70885733  0.96909991  0.03478794     0.15800
C2349       C  0.76667382  0.83129849  0.96703985    -0.13800
C2350       C  0.74437037  0.82113707  0.00127285    -0.29000
H2351       H  0.75907729  0.84212747  0.93359349     0.15200
H2352       H  0.75176440  0.81275198  0.86801589     0.15800
loop_ 
_geom_bond_atom_site_label_1 
_geom_bond_atom_site_label_2 
_geom_bond_distance 
_geom_bond_site_symmetry_2 
_ccdc_geom_bond_type 
O1          C984   1.264   1_554  A
O1         Cd986   2.456   1_554  S
C2          O991   1.269       .  A
C2            O7   1.252       .  S
C2           C27   1.498       .  S
O3            C9   1.263       .  A
O3           Cd6   2.400       .  S
C4           O12   1.265       .  A
C4          O197   1.263       .  A
C4          C194   1.471       .  S
C5           O10   1.268       .  A
C5            O8   1.264       .  A
C5          C185   1.473       .  S
Cd6          O13   2.421       .  S
Cd6          O12   2.481       .  S
Cd6          O11   2.450       .  S
Cd6          O10   2.469       .  S
Cd6           O8   2.464       .  S
Cd6         O197   2.456       .  S
Cd6           O7   2.665       .  S
Cd6         O203   2.613       .  S
O7         Cd986   2.622   1_554  S
C9           O13   1.266       .  A
C9          C189   1.458       .  S
O11         C198   1.269       .  A
O14          C17   1.270       .  A
O14        Cd215   2.486       .  S
C15          O20   1.271       .  A
C15         O220   1.267       .  A
C15          C42   1.485       .  S
O16          C22   1.265       .  A
O16         Cd19   2.439   1_554  S
C17         O221   1.265       .  A
C17         C193   1.473       .  S
C18          O23   1.271       .  A
C18        O1001   1.269   1_554  A
C18         C178   1.475       .  S
Cd19         O26   2.453       .  S
Cd19         O25   2.401   1_556  S
Cd19         O24   2.473   1_556  S
Cd19         O23   2.457   1_556  S
Cd19        O994   2.489       .  S
Cd19       O1000   2.471       .  S
Cd19       O1001   2.439       .  S
O20        Cd215   2.485       .  S
O21         C214   1.268       .  A
O21        Cd215   2.436       .  S
C22          O26   1.264   1_554  A
C22         C181   1.466       .  S
O24         C995   1.268   1_554  A
O25         C997   1.264   1_554  A
C27          C28   1.410       .  A
C27          C32   1.418       .  A
C28          C29   1.408       .  A
C28          H47   1.082       .  S
C29          C52   1.492   1_565  S
C29          C30   1.416       .  A
C30          C31   1.423       .  A
C30          C37   1.407   1_565  A
C31          C32   1.424       .  A
C31        C1212   1.423   1_455  A
C32          C33   1.407       .  A
C33        C1210   1.395   1_455  A
C33          H43   1.083       .  S
C34          C35   1.403       .  A
C34        C1209   1.397       .  A
C34          H44   1.083       .  S
C35          C36   1.426       .  A
C35          C42   1.416       .  A
C36          C39   1.425       .  A
C36        C1207   1.423       .  A
C37        C1214   1.397   1_455  A
C37          H45   1.083       .  S
C38          C39   1.404   1_545  A
C38        C1213   1.396       .  A
C38          H46   1.083       .  S
C39          C40   1.414       .  A
C40          C63   1.483   1_565  S
C40          C41   1.398       .  A
C41          C42   1.399       .  A
C41          H48   1.085       .  S
O49          C52   1.274       .  A
O49         Cd54   2.535       .  S
C50          O59   1.267       .  A
C50          O55   1.272       .  A
C50         C173   1.472       .  S
O51         C253   1.267       .  A
O51        Cd250   2.407       .  S
C52          O60   1.264       .  A
C53          O58   1.270   1_554  A
C53          O56   1.268       .  A
C53         C169   1.472       .  S
Cd54         O61   2.437       .  S
Cd54         O60   2.464       .  S
Cd54         O59   2.425       .  S
Cd54         O55   2.483       .  S
Cd54         O58   2.445   1_554  S
Cd54         O56   2.433       .  S
Cd54       O1031   2.399   1_554  S
C57          O61   1.264       .  A
C57        O1031   1.267   1_554  A
C57        C1170   1.462   1_545  S
O62          C65   1.266       .  A
O62         Cd67   2.472       .  S
C63          O72   1.267       .  A
C63         O264   1.264       .  A
O64          C70   1.247       .  S
O64         Cd67   2.560       .  S
O64       Cd1047   2.581   1_554  S
C65          O73   1.266       .  A
C65         C174   1.474       .  S
C66          O71   1.261       .  A
C66          O69   1.263       .  A
C66         C166   1.473       .  S
Cd67         O74   2.386       .  S
Cd67         O73   2.462       .  S
Cd67         O72   2.520       .  S
Cd67         O71   2.484       .  S
Cd67         O69   2.476       .  S
Cd67        O264   2.476       .  S
Cd67        O260   2.585       .  S
O68        C1043   1.264       .  A
O68       Cd1047   2.474       .  S
C70          O74   1.264       .  A
C70         C182   1.474   1_545  S
O75          C78   1.266       .  A
O75         Cd80   2.464       .  S
C76          O81   1.269       .  A
C76         O281   1.267       .  A
C76         C161   1.474       .  S
O77          C83   1.268       .  A
O77       Cd1060   2.486   1_554  S
C78         O282   1.265       .  A
C78         C103   1.481       .  S
C79          O84   1.270       .  A
C79        O1062   1.266   1_554  A
C79        C1166   1.476       .  S
Cd80         O81   2.462       .  S
Cd80         O82   2.422       .  S
Cd80        O273   2.481       .  S
Cd80        O283   2.407       .  S
Cd80        O282   2.481       .  S
Cd80        O281   2.429       .  S
Cd80        O280   2.494       .  S
O82         C275   1.265       .  A
C83          O87   1.266   1_554  A
C83         C157   1.470       .  S
O84       Cd1060   2.480   1_554  S
O85        C1056   1.267       .  A
O85       Cd1060   2.425       .  S
O86        C1058   1.264   1_554  A
O86       Cd1060   2.459   1_554  S
O87       Cd1060   2.391       .  S
O88          C91   1.270       .  A
O88         Cd93   2.505       .  S
C89          O98   1.267       .  A
C89          O94   1.270       .  A
C89         C162   1.471       .  S
O90          C96   1.268       .  A
O90         Cd93   2.481       .  S
C91          O99   1.265       .  A
C91         C114   1.485       .  S
C92          O97   1.268       .  A
C92          O95   1.267       .  A
C92         C177   1.474       .  S
Cd93        O100   2.414       .  S
Cd93         O99   2.471       .  S
Cd93         O98   2.422       .  S
Cd93         O94   2.454       .  S
Cd93         O97   2.458       .  S
Cd93         O95   2.444       .  S
C96         O100   1.261       .  A
C96         C153   1.464       .  S
C101        C124   1.485       .  S
C101        C102   1.402       .  A
C101        C106   1.416       .  A
C102        C103   1.403       .  A
C102        H121   1.086       .  S
C103        C104   1.413       .  A
C104        C105   1.422       .  A
C104        C111   1.405       .  A
C105        C106   1.423       .  A
C105        C110   1.422       .  A
C106        C107   1.406       .  A
C107        C108   1.397       .  A
C107        H117   1.083       .  S
C108        C109   1.405       .  A
C108        H118   1.083       .  S
C109        C110   1.422       .  A
C109        C116   1.415       .  A
C110        C113   1.424       .  A
C111        C112   1.395       .  A
C111        H119   1.083       .  S
C112        C113   1.404       .  A
C112        H120   1.083       .  S
C113        C114   1.415       .  A
C114        C115   1.400       .  A
C115        C116   1.402       .  A
C115        H122   1.085       .  S
C116        C139   1.482       .  S
O123        C126   1.272       .  A
O123       Cd324   2.455       .  S
C124        O129   1.268       .  A
C124        O329   1.265       .  A
O125        C131   1.269       .  A
O125       Cd128   2.478   1_554  S
C126        O330   1.267       .  A
C126        C149   1.470       .  S
C127        O132   1.271       .  A
C127       O1110   1.266   1_554  A
C127        C170   1.473       .  S
Cd128       O135   2.415       .  S
Cd128       O134   2.398   1_556  S
Cd128       O133   2.456   1_556  S
Cd128       O132   2.463   1_556  S
Cd128      O1103   2.456       .  S
Cd128      O1109   2.498       .  S
Cd128      O1110   2.426       .  S
O129       Cd324   2.500       .  S
O130        C323   1.267       .  A
O130       Cd324   2.437       .  S
C131        O135   1.263   1_554  A
C131        C158   1.466       .  S
O133       C1104   1.266   1_554  A
O134       C1106   1.268   1_554  A
O136       C1119   1.265       .  A
O136      Cd1121   2.470       .  S
C137        O146   1.267       .  A
C137        O338   1.268       .  A
C137        C150   1.466       .  S
O138        C144   1.271       .  A
O138       Cd141   2.486       .  S
C139        O147   1.265       .  A
C139        O332   1.266       .  A
C140        O145   1.265       .  A
C140        O143   1.266       .  A
C140        C154   1.469       .  S
Cd141       O148   2.398       .  S
Cd141       O147   2.486       .  S
Cd141       O146   2.425       .  S
Cd141       O145   2.475       .  S
Cd141       O143   2.415       .  S
Cd141       O332   2.485       .  S
Cd141       O338   2.443       .  S
O142       C1117   1.269       .  A
O142      Cd1121   2.440       .  S
C144        O148   1.264       .  A
C144        C165   1.475       .  S
C149        H151   1.077       .  S
C149       C1326   1.343   1_455  D
C150        H348   1.080       .  S
C150       C1325   1.341       .  D
H152       C1130   1.082   1_554  S
C153        H155   1.088       .  S
C153        C154   1.338       .  D
C154        H156   1.086   1_554  S
C157        H159   1.086       .  S
C157        C158   1.340       .  D
C158        H160   1.088       .  S
C161        H163   1.080       .  S
C161       C1338   1.343   1_455  D
C162        H164   1.079       .  S
C162       C1337   1.343       .  D
C165        H167   1.087       .  S
C165        C166   1.348       .  D
C166        H168   1.088       .  S
C169        H171   1.079   1_554  S
C169        C170   1.347       .  D
C170        H172   1.079       .  S
C173        H175   1.086       .  S
C173        C174   1.343       .  D
C174        H176   1.084       .  S
C177        H179   1.084   1_554  S
C177        C178   1.347       .  D
C178        H180   1.085       .  S
C181        H183   1.085       .  S
C181        C182   1.343       .  D
C182       H1164   1.080   1_554  S
H184        C378   1.080       .  S
C185        H187   1.086       .  S
C185        C186   1.348       .  D
C186        C275   1.476       .  S
C186        H188   1.086       .  S
C189        H191   1.083       .  S
C189        C190   1.337       .  D
C190        C253   1.462   1_565  S
C190        H192   1.087       .  S
C193        H195   1.085       .  S
C193        C194   1.343       .  D
C194        H392   1.086       .  S
H196       C1174   1.086   1_554  S
C198        O203   1.249       .  S
C198        C223   1.497       .  S
O199        C205   1.265       .  A
O199       Cd202   2.418       .  S
C200        O393   1.264       .  A
C200        O208   1.265       .  A
C200        C390   1.475       .  S
C201        O206   1.268       .  A
C201        O204   1.264       .  A
C201        C381   1.474       .  S
Cd202       O393   2.463       .  S
Cd202       O209   2.408       .  S
Cd202       O208   2.497       .  S
Cd202       O207   2.451       .  S
Cd202       O206   2.475       .  S
Cd202       O204   2.445       .  S
Cd202       O203   2.648       .  S
Cd202       O399   2.615       .  S
C205        O209   1.266       .  A
C205        C385   1.458       .  S
O207        C394   1.268       .  A
O210        C213   1.271       .  A
O210       Cd411   2.486       .  S
C211        O416   1.267       .  A
C211        O216   1.271       .  A
C211        C238   1.482       .  S
O212        C218   1.266       .  A
O212       Cd215   2.426       .  S
C213        O417   1.266       .  A
C213        C389   1.476       .  S
C214        O219   1.271       .  A
C214        C374   1.475       .  S
Cd215       O222   2.435       .  S
Cd215       O221   2.413       .  S
Cd215       O220   2.480       .  S
Cd215       O219   2.460       .  S
O216       Cd411   2.476       .  S
O217        C410   1.268       .  A
O217       Cd411   2.426       .  S
C218        O222   1.264       .  A
C218        C377   1.461       .  S
C223        C224   1.410       .  A
C223        C228   1.417       .  A
C224        C225   1.409       .  A
C224        H243   1.081       .  S
C225        C248   1.492   1_565  S
C225        C226   1.416       .  A
C226        C227   1.423       .  A
C226        C233   1.407   1_565  A
C227        C228   1.423       .  A
C227       C1408   1.423   1_455  A
C228        C229   1.408       .  A
C229       C1406   1.395   1_455  A
C229        H239   1.083       .  S
C230       C1405   1.396       .  A
C230        C231   1.402       .  A
C230        H240   1.083       .  S
C231        C232   1.426       .  A
C231        C238   1.415       .  A
C232       C1403   1.423       .  A
C232        C235   1.424       .  A
C233       C1410   1.397   1_455  A
C233        H241   1.083       .  S
C234       C1409   1.396       .  A
C234        C235   1.404   1_545  A
C234        H242   1.083       .  S
C235        C236   1.413       .  A
C236        C259   1.477   1_565  S
C236        C237   1.397       .  A
C237        C238   1.397       .  A
C237        H244   1.085       .  S
O245        C248   1.272       .  A
O245       Cd250   2.525       .  S
C246        O255   1.266       .  A
C246        O251   1.271       .  A
C246        C369   1.469       .  S
O247        C449   1.267       .  A
O247       Cd446   2.401       .  S
C248        O256   1.264       .  A
C249        O254   1.270       .  A
C249        O252   1.269       .  A
C249        C365   1.473       .  S
Cd250       O257   2.435       .  S
Cd250       O256   2.469       .  S
Cd250       O255   2.423       .  S
Cd250       O251   2.472       .  S
Cd250       O254   2.444       .  S
Cd250       O252   2.444       .  S
C253        O257   1.262       .  A
O258        C261   1.265       .  A
O258       Cd263   2.470       .  S
C259        O268   1.267       .  A
C259        O460   1.263       .  A
O260        C266   1.248       .  S
O260       Cd263   2.567       .  S
C261        O269   1.266       .  A
C261        C370   1.473       .  S
C262        O267   1.261       .  A
C262        O265   1.263       .  A
C262        C362   1.469       .  S
Cd263       O270   2.359       .  S
Cd263       O269   2.449       .  S
Cd263       O268   2.516       .  S
Cd263       O460   2.451       .  S
Cd263       O267   2.474       .  S
Cd263       O265   2.462       .  S
Cd263       O456   2.598       .  S
C266        O270   1.263       .  A
C266        C378   1.472   1_545  S
O271        C274   1.266       .  A
O271       Cd276   2.474       .  S
C272        O477   1.267       .  A
C272        O277   1.269       .  A
C272        C357   1.473       .  S
O273        C279   1.265       .  A
C274        O478   1.265       .  A
C274        C299   1.481       .  S
C275        O280   1.269       .  A
Cd276       O469   2.476       .  S
Cd276       O479   2.415       .  S
Cd276       O478   2.480       .  S
Cd276       O477   2.424       .  S
Cd276       O277   2.457       .  S
Cd276       O476   2.479       .  S
Cd276       O278   2.427       .  S
O278        C471   1.265       .  A
C279        O283   1.265       .  A
C279        C353   1.470       .  S
O284        C287   1.270       .  A
O284       Cd289   2.510       .  S
C285        O294   1.268       .  A
C285        O290   1.270       .  A
C285        C358   1.471       .  S
O286        C292   1.269       .  A
O286       Cd289   2.474       .  S
C287        O295   1.264       .  A
C287        C310   1.483       .  S
C288        O293   1.269       .  A
C288        O291   1.267       .  A
C288        C373   1.475       .  S
Cd289       O296   2.413       .  S
Cd289       O295   2.453       .  S
Cd289       O294   2.414       .  S
Cd289       O290   2.453       .  S
Cd289       O293   2.465       .  S
Cd289       O291   2.446       .  S
C292        O296   1.261       .  A
C292        C349   1.463       .  S
C297        C320   1.485       .  S
C297        C298   1.402       .  A
C297        C302   1.415       .  A
C298        C299   1.403       .  A
C298        H317   1.085       .  S
C299        C300   1.411       .  A
C300        C301   1.422       .  A
C300        C307   1.405       .  A
C301        C302   1.423       .  A
C301        C306   1.421       .  A
C302        C303   1.405       .  A
C303        C304   1.396       .  A
C303        H313   1.083       .  S
C304        C305   1.406       .  A
C304        H314   1.083       .  S
C305        C306   1.421       .  A
C305        C312   1.413       .  A
C306        C309   1.423       .  A
C307        C308   1.393       .  A
C307        H315   1.083       .  S
C308        C309   1.404       .  A
C308        H316   1.083       .  S
C309        C310   1.413       .  A
C310        C311   1.401       .  A
C311        C312   1.404       .  A
C311        H318   1.085       .  S
C312        C335   1.480       .  S
O319        C322   1.271       .  A
O319       Cd520   2.461       .  S
C320        O525   1.264       .  A
C320        O325   1.270       .  A
O321        C327   1.269       .  A
O321       Cd324   2.483       .  S
C322        O526   1.268       .  A
C322        C345   1.471       .  S
C323        O328   1.270       .  A
C323        C366   1.475       .  S
Cd324       O331   2.412       .  S
Cd324       O330   2.405       .  S
Cd324       O329   2.474       .  S
Cd324       O328   2.465       .  S
O325       Cd520   2.512       .  S
O326        C519   1.266       .  A
O326       Cd520   2.435       .  S
C327        O331   1.261       .  A
C327        C354   1.465       .  S
C333        O342   1.267       .  A
C333        O534   1.268       .  A
C333        C346   1.470       .  S
O334        C340   1.270       .  A
O334       Cd337   2.486       .  S
C335        O528   1.266       .  A
C335        O343   1.266       .  A
C336        O341   1.264       .  A
C336        O339   1.265       .  A
C336        C350   1.468       .  S
Cd337       O528   2.467       .  S
Cd337       O344   2.405       .  S
Cd337       O343   2.478       .  S
Cd337       O342   2.434       .  S
Cd337       O534   2.443       .  S
Cd337       O341   2.477       .  S
Cd337       O339   2.411       .  S
C340        O344   1.265       .  A
C340        C361   1.473       .  S
C345        H347   1.083       .  S
C345       C1522   1.342   1_455  D
C346        H544   1.081       .  S
C346       C1521   1.343       .  D
C349        H351   1.088       .  S
C349        C350   1.338       .  D
C350        H352   1.086       .  S
C353        H355   1.085       .  S
C353        C354   1.338       .  D
C354        H356   1.088       .  S
C357        H359   1.079       .  S
C357       C1534   1.344   1_455  D
C358        H360   1.081       .  S
C358       C1533   1.342       .  D
C361        H363   1.088       .  S
C361        C362   1.346       .  D
C362        H364   1.089       .  S
C365        H367   1.082       .  S
C365        C366   1.346       .  D
C366        H368   1.084       .  S
C369        H371   1.086       .  S
C369        C370   1.343       .  D
C370        H372   1.085       .  S
C373        H375   1.085       .  S
C373        C374   1.347       .  D
C374        H376   1.084       .  S
C377        H379   1.084       .  S
C377        C378   1.344       .  D
H380        C574   1.080       .  S
C381        H383   1.087       .  S
C381        C382   1.347       .  D
C382        C471   1.473       .  S
C382        H384   1.086       .  S
C385        H387   1.083       .  S
C385        C386   1.337       .  D
C386        C449   1.461   1_565  S
C386        H388   1.088       .  S
C389        H391   1.084       .  S
C389        C390   1.345       .  D
C390        H588   1.086       .  S
C394        O399   1.250       .  S
C394        C419   1.495       .  S
O395        C401   1.264       .  A
O395       Cd398   2.400       .  S
C396        O589   1.264       .  A
C396        O404   1.265       .  A
C396        C586   1.472       .  S
C397        O402   1.267       .  A
C397        O400   1.264       .  A
C397        C577   1.472       .  S
Cd398       O589   2.458       .  S
Cd398       O405   2.402       .  S
Cd398       O404   2.489       .  S
Cd398       O403   2.464       .  S
Cd398       O402   2.465       .  S
Cd398       O400   2.455       .  S
Cd398       O399   2.646       .  S
Cd398       O595   2.607       .  S
C401        O405   1.266       .  A
C401        C581   1.454       .  S
O403        C590   1.269       .  A
O406        C409   1.270       .  A
O406       Cd607   2.497       .  S
C407        O612   1.267       .  A
C407        O412   1.271       .  A
C407        C434   1.481       .  S
O408        C414   1.266       .  A
O408       Cd411   2.428       .  S
C409        O613   1.265       .  A
C409        C585   1.475       .  S
C410        O415   1.270       .  A
C410        C570   1.473       .  S
Cd411       O418   2.434       .  S
Cd411       O417   2.423       .  S
Cd411       O416   2.474       .  S
Cd411       O415   2.454       .  S
O412       Cd607   2.474       .  S
O413        C606   1.268       .  A
O413       Cd607   2.431       .  S
C414        O418   1.264       .  A
C414        C573   1.461       .  S
C419        C420   1.409       .  A
C419        C424   1.418       .  A
C420        C421   1.407       .  A
C420        H439   1.081       .  S
C421        C444   1.489   1_565  S
C421        C422   1.413       .  A
C422        C423   1.423       .  A
C422        C429   1.406   1_565  A
C423        C424   1.423       .  A
C423       C1604   1.422   1_455  A
C424        C425   1.408       .  A
C425       C1602   1.397   1_455  A
C425        H435   1.083       .  S
C426       C1601   1.395       .  A
C426        C427   1.403       .  A
C426        H436   1.083       .  S
C427        C428   1.426       .  A
C427        C434   1.413       .  A
C428       C1599   1.423       .  A
C428        C431   1.425       .  A
C429       C1606   1.394   1_455  A
C429        H437   1.083       .  S
C430       C1605   1.398       .  A
C430        C431   1.404   1_545  A
C430        H438   1.083       .  S
C431        C432   1.415       .  A
C432        C455   1.482   1_565  S
C432        C433   1.397       .  A
C433        C434   1.397       .  A
C433        H440   1.084       .  S
O441        C444   1.273       .  A
O441       Cd446   2.516       .  S
C442        O451   1.267       .  A
C442        O447   1.271       .  A
C442        C565   1.468       .  S
O443        C645   1.267       .  A
O443       Cd642   2.399       .  S
C444        O452   1.264       .  A
C445        O450   1.270       .  A
C445        O448   1.269       .  A
C445        C561   1.473       .  S
Cd446       O453   2.433       .  S
Cd446       O452   2.456       .  S
Cd446       O451   2.415       .  S
Cd446       O447   2.463       .  S
Cd446       O450   2.451       .  S
Cd446       O448   2.445       .  S
C449        O453   1.263       .  A
O454        C457   1.266       .  A
O454       Cd459   2.487       .  S
C455        O464   1.266       .  A
C455        O656   1.264       .  A
O456        C462   1.250       .  S
O456       Cd459   2.565       .  S
C457        O465   1.266       .  A
C457        C566   1.474       .  S
C458        O463   1.262       .  A
C458        O461   1.261       .  A
C458        C558   1.468       .  S
Cd459       O466   2.358       .  S
Cd459       O465   2.456       .  S
Cd459       O464   2.517       .  S
Cd459       O656   2.482       .  S
Cd459       O463   2.488       .  S
Cd459       O461   2.445       .  S
Cd459       O652   2.578       .  S
C462        O466   1.265       .  A
C462        C574   1.472   1_545  S
O467        C470   1.267       .  A
O467       Cd472   2.490       .  S
C468        O673   1.268       .  A
C468        O473   1.269       .  A
C468        C553   1.471       .  S
O469        C475   1.265       .  A
C470        O674   1.264       .  A
C470        C495   1.479       .  S
C471        O476   1.270       .  A
Cd472       O665   2.487       .  S
Cd472       O675   2.412       .  S
Cd472       O674   2.458       .  S
Cd472       O673   2.432       .  S
Cd472       O473   2.446       .  S
Cd472       O672   2.483       .  S
Cd472       O474   2.418       .  S
O474        C667   1.265       .  A
C475        O479   1.265       .  A
C475        C549   1.471       .  S
O480        C483   1.269       .  A
O480       Cd485   2.514       .  S
C481        O490   1.267       .  A
C481        O486   1.271       .  A
C481        C554   1.471       .  S
O482        C488   1.269       .  A
O482       Cd485   2.476       .  S
C483        O491   1.264       .  A
C483        C506   1.485       .  S
C484        O489   1.268       .  A
C484        O487   1.266       .  A
C484        C569   1.473       .  S
Cd485       O492   2.409       .  S
Cd485       O491   2.466       .  S
Cd485       O490   2.418       .  S
Cd485       O486   2.459       .  S
Cd485       O489   2.464       .  S
Cd485       O487   2.441       .  S
C488        O492   1.261       .  A
C488        C545   1.463       .  S
C493        C516   1.481       .  S
C493        C494   1.401       .  A
C493        C498   1.413       .  A
C494        C495   1.401       .  A
C494        H513   1.084       .  S
C495        C496   1.411       .  A
C496        C497   1.422       .  A
C496        C503   1.405       .  A
C497        C498   1.423       .  A
C497        C502   1.420       .  A
C498        C499   1.405       .  A
C499        C500   1.395       .  A
C499        H509   1.083       .  S
C500        C501   1.405       .  A
C500        H510   1.083       .  S
C501        C502   1.422       .  A
C501        C508   1.412       .  A
C502        C505   1.423       .  A
C503        C504   1.394       .  A
C503        H511   1.083       .  S
C504        C505   1.404       .  A
C504        H512   1.083       .  S
C505        C506   1.413       .  A
C506        C507   1.402       .  A
C507        C508   1.404       .  A
C507        H514   1.085       .  S
C508        C531   1.481       .  S
O515        C518   1.272       .  A
O515       Cd716   2.448       .  S
C516        O721   1.265       .  A
C516        O521   1.271       .  A
O517        C523   1.269       .  A
O517       Cd520   2.482       .  S
C518        O722   1.268       .  A
C518        C541   1.469       .  S
C519        O524   1.270       .  A
C519        C562   1.474       .  S
Cd520       O527   2.415       .  S
Cd520       O526   2.418       .  S
Cd520       O525   2.460       .  S
Cd520       O524   2.473       .  S
O521       Cd716   2.498       .  S
O522        C715   1.267       .  A
O522       Cd716   2.437       .  S
C523        O527   1.262       .  A
C523        C550   1.466       .  S
C529        O538   1.267       .  A
C529        O730   1.269       .  A
C529        C542   1.469       .  S
O530        C536   1.271       .  A
O530       Cd533   2.492       .  S
C531        O724   1.266       .  A
C531        O539   1.265       .  A
C532        O537   1.265       .  A
C532        O535   1.265       .  A
C532        C546   1.468       .  S
Cd533       O724   2.475       .  S
Cd533       O540   2.394       .  S
Cd533       O539   2.477       .  S
Cd533       O538   2.432       .  S
Cd533       O730   2.443       .  S
Cd533       O537   2.470       .  S
Cd533       O535   2.406       .  S
C536        O540   1.265       .  A
C536        C557   1.475       .  S
C541        H543   1.081       .  S
C541       C1718   1.343   1_455  D
C542        H740   1.082       .  S
C542       C1717   1.343       .  D
C545        H547   1.088       .  S
C545        C546   1.338       .  D
C546        H548   1.086       .  S
C549        H551   1.084       .  S
C549        C550   1.339       .  D
C550        H552   1.088       .  S
C553        H555   1.080       .  S
C553       C1730   1.343   1_455  D
C554        H556   1.077       .  S
C554       C1729   1.343       .  D
C557        H559   1.087       .  S
C557        C558   1.346       .  D
C558        H560   1.088       .  S
C561        H563   1.088       .  S
C561        C562   1.345       .  D
C562        H564   1.091       .  S
C565        H567   1.086       .  S
C565        C566   1.343       .  D
C566        H568   1.085       .  S
C569        H571   1.085       .  S
C569        C570   1.346       .  D
C570        H572   1.085       .  S
C573        H575   1.084       .  S
C573        C574   1.344       .  D
H576        C770   1.081       .  S
C577        H579   1.086       .  S
C577        C578   1.347       .  D
C578        C667   1.474       .  S
C578        H580   1.086       .  S
C581        H583   1.083       .  S
C581        C582   1.336       .  D
C582        C645   1.460   1_565  S
C582        H584   1.088       .  S
C585        H587   1.085       .  S
C585        C586   1.344       .  D
C586        H784   1.085       .  S
C590        O595   1.248       .  S
C590        C615   1.494       .  S
O591        C597   1.264       .  A
O591       Cd594   2.405       .  S
C592        O785   1.264       .  A
C592        O600   1.265       .  A
C592        C782   1.473       .  S
C593        O598   1.268       .  A
C593        O596   1.264       .  A
C593        C773   1.473       .  S
Cd594       O785   2.455       .  S
Cd594       O601   2.412       .  S
Cd594       O600   2.492       .  S
Cd594       O599   2.465       .  S
Cd594       O598   2.466       .  S
Cd594       O596   2.454       .  S
Cd594       O595   2.644       .  S
Cd594       O791   2.620       .  S
C597        O601   1.265       .  A
C597        C777   1.456       .  S
O599        C786   1.269       .  A
O602        C605   1.270       .  A
O602       Cd803   2.495       .  S
C603        O808   1.267       .  A
C603        O608   1.271       .  A
C603        C630   1.483       .  S
O604        C610   1.265       .  A
O604       Cd607   2.425       .  S
C605        O809   1.265       .  A
C605        C781   1.476       .  S
C606        O611   1.270       .  A
C606        C766   1.473       .  S
Cd607       O614   2.436       .  S
Cd607       O613   2.410       .  S
Cd607       O612   2.471       .  S
Cd607       O611   2.451       .  S
O608       Cd803   2.487       .  S
O609        C802   1.269       .  A
O609       Cd803   2.438       .  S
C610        O614   1.265       .  A
C610        C769   1.462       .  S
C615        C616   1.408       .  A
C615        C620   1.418       .  A
C616        C617   1.406       .  A
C616        H635   1.082       .  S
C617        C640   1.489   1_565  S
C617        C618   1.412       .  A
C618        C619   1.423       .  A
C618        C625   1.406   1_565  A
C619        C620   1.423       .  A
C619       C1800   1.421   1_455  A
C620        C621   1.408       .  A
C621       C1798   1.398   1_455  A
C621        H631   1.083       .  S
C622       C1797   1.395       .  A
C622        C623   1.402       .  A
C622        H632   1.083       .  S
C623        C624   1.426       .  A
C623        C630   1.413       .  A
C624       C1795   1.421       .  A
C624        C627   1.424       .  A
C625       C1802   1.394   1_455  A
C625        H633   1.083       .  S
C626       C1801   1.395       .  A
C626        C627   1.404   1_545  A
C626        H634   1.082       .  S
C627        C628   1.411       .  A
C628        C651   1.479   1_565  S
C628        C629   1.398       .  A
C629        C630   1.397       .  A
C629        H636   1.083       .  S
O637        C640   1.272       .  A
O637       Cd642   2.538       .  S
C638        O647   1.268       .  A
C638        O643   1.267       .  A
C638        C761   1.472       .  S
O639        C841   1.265       .  A
O639       Cd838   2.399       .  S
C640        O648   1.261       .  A
C641        O646   1.269       .  A
C641        O644   1.266       .  A
C641        C757   1.472       .  S
Cd642       O649   2.435       .  S
Cd642       O648   2.456       .  S
Cd642       O647   2.436       .  S
Cd642       O643   2.461       .  S
Cd642       O646   2.458       .  S
Cd642       O644   2.440       .  S
C645        O649   1.263       .  A
O650        C653   1.273       .  A
O650       Cd655   2.466       .  S
C651        O660   1.268       .  A
C651        O852   1.262       .  A
O652        C658   1.246       .  S
O652       Cd655   2.545       .  S
C653        O661   1.264       .  A
C653        C762   1.469       .  S
C654        O659   1.263       .  A
C654        O657   1.263       .  A
C654        C754   1.466       .  S
Cd655       O662   2.386       .  S
Cd655       O661   2.420       .  S
Cd655       O660   2.524       .  S
Cd655       O852   2.441       .  S
Cd655       O659   2.465       .  S
Cd655       O657   2.443       .  S
Cd655       O848   2.613       .  S
C658        O662   1.265       .  A
C658        C770   1.470   1_545  S
O663        C666   1.266       .  A
O663       Cd668   2.480       .  S
C664        O869   1.267       .  A
C664        O669   1.269       .  A
C664        C749   1.469       .  S
O665        C671   1.267       .  A
C666        O870   1.265       .  A
C666        C691   1.484       .  S
C667        O672   1.270       .  A
Cd668       O861   2.487       .  S
Cd668       O871   2.406       .  S
Cd668       O870   2.484       .  S
Cd668       O869   2.430       .  S
Cd668       O669   2.444       .  S
Cd668       O868   2.493       .  S
Cd668       O670   2.421       .  S
O670        C863   1.265       .  A
C671        O675   1.265       .  A
C671        C745   1.471       .  S
O676        C679   1.269       .  A
O676       Cd681   2.505       .  S
C677        O686   1.267       .  A
C677        O682   1.271       .  A
C677        C750   1.469       .  S
O678        C684   1.267       .  A
O678       Cd681   2.483       .  S
C679        O687   1.264       .  A
C679        C702   1.485       .  S
C680        O685   1.269       .  A
C680        O683   1.266       .  A
C680        C765   1.473       .  S
Cd681       O688   2.417       .  S
Cd681       O687   2.470       .  S
Cd681       O686   2.410       .  S
Cd681       O682   2.456       .  S
Cd681       O685   2.460       .  S
Cd681       O683   2.444       .  S
C684        O688   1.261       .  A
C684        C741   1.464       .  S
C689        C712   1.483       .  S
C689        C690   1.404       .  A
C689        C694   1.415       .  A
C690        C691   1.404       .  A
C690        H709   1.086       .  S
C691        C692   1.413       .  A
C692        C693   1.423       .  A
C692        C699   1.404       .  A
C693        C694   1.422       .  A
C693        C698   1.422       .  A
C694        C695   1.406       .  A
C695        C696   1.397       .  A
C695        H705   1.083       .  S
C696        C697   1.405       .  A
C696        H706   1.083       .  S
C697        C698   1.424       .  A
C697        C704   1.416       .  A
C698        C701   1.423       .  A
C699        C700   1.394       .  A
C699        H707   1.083       .  S
C700        C701   1.405       .  A
C700        H708   1.083       .  S
C701        C702   1.413       .  A
C702        C703   1.402       .  A
C703        C704   1.404       .  A
C703        H710   1.085       .  S
C704        C727   1.486       .  S
O711        C714   1.271       .  A
O711       Cd912   2.449       .  S
C712        O917   1.266       .  A
C712        O717   1.269       .  A
O713        C719   1.269       .  A
O713       Cd716   2.481       .  S
C714        O918   1.267       .  A
C714        C737   1.466       .  S
C715        O720   1.270       .  A
C715        C758   1.475       .  S
Cd716       O723   2.422       .  S
Cd716       O722   2.397       .  S
Cd716       O721   2.445       .  S
Cd716       O720   2.467       .  S
O717       Cd912   2.499       .  S
O718        C911   1.267       .  A
O718       Cd912   2.430       .  S
C719        O723   1.263       .  A
C719        C746   1.467       .  S
C725        O734   1.267       .  A
C725        O926   1.270       .  A
C725        C738   1.469       .  S
O726        C732   1.271       .  A
O726       Cd729   2.488       .  S
C727        O920   1.266       .  A
C727        O735   1.266       .  A
C728        O733   1.265       .  A
C728        O731   1.265       .  A
C728        C742   1.469       .  S
Cd729       O920   2.483       .  S
Cd729       O736   2.390       .  S
Cd729       O735   2.499       .  S
Cd729       O734   2.430       .  S
Cd729       O926   2.453       .  S
Cd729       O733   2.471       .  S
Cd729       O731   2.411       .  S
C732        O736   1.265       .  A
C732        C753   1.473       .  S
C737        H739   1.078       .  S
C737       C1914   1.342   1_455  D
C738        H936   1.079       .  S
C738       C1913   1.344       .  D
C741        H743   1.088       .  S
C741        C742   1.338       .  D
C742        H744   1.085       .  S
C745        H747   1.085       .  S
C745        C746   1.340       .  D
C746        H748   1.088       .  S
C749        H751   1.081       .  S
C749       C1926   1.344   1_455  D
C750        H752   1.080       .  S
C750       C1925   1.343       .  D
C753        H755   1.086       .  S
C753        C754   1.347       .  D
C754        H756   1.087       .  S
C757        H759   1.088       .  S
C757        C758   1.345       .  D
C758        H760   1.088       .  S
C761        H763   1.086       .  S
C761        C762   1.338       .  D
C762        H764   1.087       .  S
C765        H767   1.085       .  S
C765        C766   1.346       .  D
C766        H768   1.084       .  S
C769        H771   1.085       .  S
C769        C770   1.341       .  D
H772        C966   1.075       .  S
C773        H775   1.087       .  S
C773        C774   1.348       .  D
C774        C863   1.476       .  S
C774        H776   1.086       .  S
C777        H779   1.083       .  S
C777        C778   1.337       .  D
C778        C841   1.462   1_565  S
C778        H780   1.087       .  S
C781        H783   1.085       .  S
C781        C782   1.344       .  D
C782        H980   1.086       .  S
C786        O791   1.250       .  S
C786        C811   1.500       .  S
O787        C793   1.264       .  A
O787       Cd790   2.419       .  S
C788        O981   1.264       .  A
C788        O796   1.265       .  A
C788        C978   1.468       .  S
C789        O794   1.268       .  A
C789        O792   1.263       .  A
C789        C969   1.473       .  S
Cd790       O981   2.446       .  S
Cd790       O797   2.414       .  S
Cd790       O796   2.473       .  S
Cd790       O795   2.440       .  S
Cd790       O794   2.468       .  S
Cd790       O792   2.453       .  S
Cd790       O791   2.643       .  S
Cd790       O987   2.616       .  S
C793        O797   1.265       .  A
C793        C973   1.458       .  S
O795        C982   1.269       .  A
O798        C801   1.270       .  A
O798       Cd999   2.476       .  S
C799       O1004   1.267       .  A
C799        O804   1.270       .  A
C799        C826   1.479       .  S
O800        C806   1.265       .  A
O800       Cd803   2.436       .  S
C801       O1005   1.265       .  A
C801        C977   1.471       .  S
C802        O807   1.271       .  A
C802        C962   1.475       .  S
Cd803       O810   2.446       .  S
Cd803       O809   2.419       .  S
Cd803       O808   2.472       .  S
Cd803       O807   2.452       .  S
O804       Cd999   2.478       .  S
O805        C998   1.268       .  A
O805       Cd999   2.431       .  S
C806        O810   1.264       .  A
C806        C965   1.468       .  S
C811        C812   1.410       .  A
C811        C816   1.419       .  A
C812        C813   1.409       .  A
C812        H831   1.081       .  S
C813        C836   1.489   1_565  S
C813        C814   1.413       .  A
C814        C815   1.422       .  A
C814        C821   1.407   1_565  A
C815        C816   1.424       .  A
C815       C1996   1.423   1_455  A
C816        C817   1.408       .  A
C817       C1994   1.397   1_455  A
C817        H827   1.083       .  S
C818       C1993   1.398       .  A
C818        C819   1.403       .  A
C818        H828   1.083       .  S
C819        C820   1.424       .  A
C819        C826   1.414       .  A
C820       C1991   1.424       .  A
C820        C823   1.426       .  A
C821       C1998   1.395   1_455  A
C821        H829   1.083       .  S
C822       C1997   1.396       .  A
C822        C823   1.403   1_545  A
C822        H830   1.083       .  S
C823        C824   1.414       .  A
C824        C847   1.481   1_565  S
C824        C825   1.396       .  A
C825        C826   1.397       .  A
C825        H832   1.085       .  S
O833        C836   1.273       .  A
O833       Cd838   2.521       .  S
C834        O843   1.267       .  A
C834        O839   1.271       .  A
C834        C957   1.470       .  S
O835       C1037   1.266       .  A
O835      Cd1034   2.409       .  S
C836        O844   1.264       .  A
C837        O842   1.270       .  A
C837        O840   1.269       .  A
C837        C953   1.471       .  S
Cd838       O845   2.452       .  S
Cd838       O844   2.452       .  S
Cd838       O843   2.423       .  S
Cd838       O839   2.477       .  S
Cd838       O842   2.447       .  S
Cd838       O840   2.436       .  S
C841        O845   1.263       .  A
O846        C849   1.265       .  A
O846       Cd851   2.476       .  S
C847        O856   1.266       .  A
C847       O1048   1.264       .  A
O848        C854   1.249       .  S
O848       Cd851   2.594       .  S
C849        O857   1.266       .  A
C849        C958   1.473       .  S
C850        O855   1.261       .  A
C850        O853   1.263       .  A
C850        C950   1.468       .  S
Cd851       O858   2.385       .  S
Cd851       O857   2.460       .  S
Cd851       O856   2.514       .  S
Cd851      O1048   2.473       .  S
Cd851       O855   2.471       .  S
Cd851       O853   2.463       .  S
Cd851      O1044   2.595       .  S
C854        O858   1.264       .  A
C854        C966   1.477   1_545  S
O859        C862   1.266       .  A
O859       Cd864   2.476       .  S
C860       O1065   1.268       .  A
C860        O865   1.269       .  A
C860        C945   1.467       .  S
O861        C867   1.265       .  A
C862       O1066   1.265       .  A
C862        C887   1.479       .  S
C863        O868   1.270       .  A
Cd864      O1057   2.481       .  S
Cd864      O1067   2.417       .  S
Cd864      O1066   2.465       .  S
Cd864      O1065   2.421       .  S
Cd864       O865   2.442       .  S
Cd864      O1064   2.484       .  S
Cd864       O866   2.426       .  S
O866       C1059   1.265       .  A
C867        O871   1.264       .  A
C867        C941   1.470       .  S
O872        C875   1.269       .  A
O872       Cd877   2.501       .  S
C873        O882   1.267       .  A
C873        O878   1.271       .  A
C873        C946   1.470       .  S
O874        C880   1.268       .  A
O874       Cd877   2.482       .  S
C875        O883   1.265       .  A
C875        C898   1.483       .  S
C876        O881   1.268       .  A
C876        O879   1.267       .  A
C876        C961   1.475       .  S
Cd877       O884   2.409       .  S
Cd877       O883   2.464       .  S
Cd877       O882   2.406       .  S
Cd877       O878   2.460       .  S
Cd877       O881   2.460       .  S
Cd877       O879   2.451       .  S
C880        O884   1.261       .  A
C880        C937   1.464       .  S
C885        C908   1.483       .  S
C885        C886   1.402       .  A
C885        C890   1.414       .  A
C886        C887   1.403       .  A
C886        H905   1.086       .  S
C887        C888   1.411       .  A
C888        C889   1.421       .  A
C888        C895   1.405       .  A
C889        C890   1.422       .  A
C889        C894   1.420       .  A
C890        C891   1.405       .  A
C891        C892   1.395       .  A
C891        H901   1.083       .  S
C892        C893   1.405       .  A
C892        H902   1.083       .  S
C893        C894   1.422       .  A
C893        C900   1.413       .  A
C894        C897   1.422       .  A
C895        C896   1.394       .  A
C895        H903   1.083       .  S
C896        C897   1.405       .  A
C896        H904   1.083       .  S
C897        C898   1.413       .  A
C898        C899   1.401       .  A
C899        C900   1.402       .  A
C899        H906   1.085       .  S
C900        C923   1.480       .  S
O907        C910   1.271       .  A
O907      Cd1108   2.453       .  S
C908       O1113   1.265       .  A
C908        O913   1.269       .  A
O909        C915   1.270       .  A
O909       Cd912   2.476       .  S
C910       O1114   1.268       .  A
C910        C933   1.469       .  S
C911        O916   1.270       .  A
C911        C954   1.474       .  S
Cd912       O919   2.411       .  S
Cd912       O918   2.392       .  S
Cd912       O917   2.457       .  S
Cd912       O916   2.467       .  S
O913      Cd1108   2.502       .  S
O914       C1107   1.267       .  A
O914      Cd1108   2.433       .  S
C915        O919   1.262       .  A
C915        C942   1.465       .  S
C921        O930   1.267       .  A
C921       O1122   1.269       .  A
C921        C934   1.467       .  S
O922        C928   1.271       .  A
O922       Cd925   2.487       .  S
C923       O1116   1.267       .  A
C923        O931   1.265       .  A
C924        O929   1.265       .  A
C924        O927   1.266       .  A
C924        C938   1.468       .  S
Cd925      O1116   2.484       .  S
Cd925       O932   2.394       .  S
Cd925       O931   2.471       .  S
Cd925       O930   2.423       .  S
Cd925      O1122   2.440       .  S
Cd925       O929   2.467       .  S
Cd925       O927   2.404       .  S
C928        O932   1.264       .  A
C928        C949   1.472       .  S
C933        H935   1.083       .  S
C933       C2110   1.343   1_455  D
C934       H1132   1.076       .  S
C934       C2109   1.342       .  D
C937        H939   1.088       .  S
C937        C938   1.337       .  D
C938        H940   1.086       .  S
C941        H943   1.085       .  S
C941        C942   1.339       .  D
C942        H944   1.088       .  S
C945        H947   1.082       .  S
C945       C2122   1.343   1_455  D
C946        H948   1.077       .  S
C946       C2121   1.343       .  D
C949        H951   1.086       .  S
C949        C950   1.347       .  D
C950        H952   1.087       .  S
C953        H955   1.088       .  S
C953        C954   1.346       .  D
C954        H956   1.087       .  S
C957        H959   1.088       .  S
C957        C958   1.343       .  D
C958        H960   1.087       .  S
C961        H963   1.084       .  S
C961        C962   1.347       .  D
C962        H964   1.084       .  S
C965        H967   1.083       .  S
C965        C966   1.344       .  D
H968       C1162   1.081       .  S
C969        H971   1.087       .  S
C969        C970   1.347       .  D
C970       C1059   1.474       .  S
C970        H972   1.086       .  S
C973        H975   1.083       .  S
C973        C974   1.338       .  D
C974       C1037   1.463   1_565  S
C974        H976   1.087       .  S
C977        H979   1.085       .  S
C977        C978   1.342       .  D
C978       H1176   1.085       .  S
C982        O987   1.251       .  S
C982       C1007   1.493       .  S
O983        C989   1.263       .  A
O983       Cd986   2.401       .  S
C984        O992   1.264       .  A
C984       C1174   1.470       .  S
C985        O990   1.267       .  A
C985        O988   1.264   1_556  A
C985       C1165   1.474       .  S
Cd986       O993   2.422   1_556  S
Cd986       O992   2.478       .  S
Cd986       O991   2.448   1_556  S
Cd986       O990   2.462       .  S
Cd986       O988   2.467   1_556  S
Cd986       O987   2.665       .  S
C989        O993   1.266   1_556  A
C989       C1169   1.458       .  S
O994        C997   1.271       .  A
C995       O1000   1.270       .  A
C995       C1022   1.482       .  S
O996       C1002   1.266       .  A
O996       Cd999   2.428       .  S
C997       C1173   1.472       .  S
C998       O1003   1.271       .  A
C998       C1158   1.474       .  S
Cd999      O1006   2.442       .  S
Cd999      O1005   2.413       .  S
Cd999      O1004   2.462       .  S
Cd999      O1003   2.454       .  S
C1002      O1006   1.265       .  A
C1002      C1161   1.463       .  S
C1007      C1008   1.408       .  A
C1007      C1012   1.417       .  A
C1008      C1009   1.407       .  A
C1008      H1027   1.082       .  S
C1009      C1032   1.487   1_565  S
C1009      C1010   1.413       .  A
C1010      C1011   1.422       .  A
C1010      C1017   1.407   1_565  A
C1011      C1012   1.423       .  A
C1011      C2192   1.421   1_455  A
C1012      C1013   1.408       .  A
C1013      C2190   1.396   1_455  A
C1013      H1023   1.083       .  S
C1014      C2189   1.397       .  A
C1014      C1015   1.403       .  A
C1014      H1024   1.083       .  S
C1015      C1016   1.424       .  A
C1015      C1022   1.414       .  A
C1016      C2187   1.424       .  A
C1016      C1019   1.426       .  A
C1017      C2194   1.396   1_455  A
C1017      H1025   1.083       .  S
C1018      C2193   1.396       .  A
C1018      C1019   1.403   1_545  A
C1018      H1026   1.083       .  S
C1019      C1020   1.415       .  A
C1020      C1043   1.482   1_565  S
C1020      C1021   1.397       .  A
C1021      C1022   1.398       .  A
C1021      H1028   1.086       .  S
O1029      C1032   1.273       .  A
O1029     Cd1034   2.521       .  S
C1030      O1039   1.266       .  A
C1030      O1035   1.271       .  A
C1030      C1153   1.467       .  S
C1032      O1040   1.263       .  A
C1033      O1038   1.270       .  A
C1033      O1036   1.268       .  A
C1033      C1149   1.472       .  S
Cd1034     O1041   2.446       .  S
Cd1034     O1040   2.447       .  S
Cd1034     O1039   2.411       .  S
Cd1034     O1035   2.459       .  S
Cd1034     O1038   2.442       .  S
Cd1034     O1036   2.444       .  S
C1037      O1041   1.263       .  A
O1042      C1045   1.265       .  A
O1042     Cd1047   2.471       .  S
C1043      O1052   1.267       .  A
O1044      C1050   1.248       .  S
O1044     Cd1047   2.577       .  S
C1045      O1053   1.266       .  A
C1045      C1154   1.472       .  S
C1046      O1051   1.262       .  A
C1046      O1049   1.263       .  A
C1046      C1146   1.470       .  S
Cd1047     O1054   2.363       .  S
Cd1047     O1053   2.460       .  S
Cd1047     O1052   2.513       .  S
Cd1047     O1051   2.473       .  S
Cd1047     O1049   2.462       .  S
C1050      O1054   1.264       .  A
C1050      C1162   1.473   1_545  S
O1055      C1058   1.268       .  A
O1055     Cd1060   2.490       .  S
C1056      O1061   1.270       .  A
C1056      C1141   1.470       .  S
O1057      C1063   1.266       .  A
C1058      C1083   1.479       .  S
C1059      O1064   1.270       .  A
Cd1060     O1061   2.451       .  S
Cd1060     O1062   2.423       .  S
C1063      O1067   1.265       .  A
C1063      C1137   1.472       .  S
O1068      C1071   1.269       .  A
O1068     Cd1073   2.504       .  S
C1069      O1078   1.267       .  A
C1069      O1074   1.270       .  A
C1069      C1142   1.469       .  S
O1070      C1076   1.268       .  A
O1070     Cd1073   2.487       .  S
C1071      O1079   1.265       .  A
C1071      C1094   1.484       .  S
C1072      O1077   1.269       .  A
C1072      O1075   1.267       .  A
C1072      C1157   1.473       .  S
Cd1073     O1080   2.422       .  S
Cd1073     O1079   2.467       .  S
Cd1073     O1078   2.417       .  S
Cd1073     O1074   2.446       .  S
Cd1073     O1077   2.462       .  S
Cd1073     O1075   2.442       .  S
C1076      O1080   1.261       .  A
C1076      C1133   1.466       .  S
C1081      C1104   1.483       .  S
C1081      C1082   1.401       .  A
C1081      C1086   1.413       .  A
C1082      C1083   1.402       .  A
C1082      H1101   1.085       .  S
C1083      C1084   1.413       .  A
C1084      C1085   1.422       .  A
C1084      C1091   1.406       .  A
C1085      C1086   1.424       .  A
C1085      C1090   1.421       .  A
C1086      C1087   1.404       .  A
C1087      C1088   1.394       .  A
C1087      H1097   1.083       .  S
C1088      C1089   1.405       .  A
C1088      H1098   1.083       .  S
C1089      C1090   1.421       .  A
C1089      C1096   1.411       .  A
C1090      C1093   1.424       .  A
C1091      C1092   1.396       .  A
C1091      H1099   1.083       .  S
C1092      C1093   1.405       .  A
C1092      H1100   1.083       .  S
C1093      C1094   1.415       .  A
C1094      C1095   1.402       .  A
C1095      C1096   1.403       .  A
C1095      H1102   1.085       .  S
C1096      C1119   1.481       .  S
O1103      C1106   1.273       .  A
C1104      O1109   1.271       .  A
O1105      C1111   1.269       .  A
O1105     Cd1108   2.485       .  S
C1106      C1129   1.471       .  S
C1107      O1112   1.270       .  A
C1107      C1150   1.476       .  S
Cd1108     O1115   2.420       .  S
Cd1108     O1114   2.407       .  S
Cd1108     O1113   2.457       .  S
Cd1108     O1112   2.475       .  S
C1111      O1115   1.262       .  A
C1111      C1138   1.467       .  S
C1117      O1126   1.268       .  A
C1117      C1130   1.469       .  S
O1118      C1124   1.271       .  A
O1118     Cd1121   2.484       .  S
C1119      O1127   1.266       .  A
C1120      O1125   1.266       .  A
C1120      O1123   1.265       .  A
C1120      C1134   1.469       .  S
Cd1121     O1128   2.398       .  S
Cd1121     O1127   2.483       .  S
Cd1121     O1126   2.425       .  S
Cd1121     O1125   2.474       .  S
Cd1121     O1123   2.409       .  S
C1124      O1128   1.265       .  A
C1124      C1145   1.474       .  S
C1129      H1131   1.081       .  S
C1129      C2306   1.344   1_455  D
C1130      C2305   1.342       .  D
C1133      H1135   1.088       .  S
C1133      C1134   1.339       .  D
C1134      H1136   1.085       .  S
C1137      H1139   1.084       .  S
C1137      C1138   1.340       .  D
C1138      H1140   1.088       .  S
C1141      H1143   1.078       .  S
C1141      C2318   1.344   1_455  D
C1142      H1144   1.079   1_556  S
C1142      C2317   1.343       .  D
C1145      H1147   1.086       .  S
C1145      C1146   1.347       .  D
C1146      H1148   1.087       .  S
C1149      H1151   1.085       .  S
C1149      C1150   1.347       .  D
C1150      H1152   1.083       .  S
C1153      H1155   1.087       .  S
C1153      C1154   1.342       .  D
C1154      H1156   1.087       .  S
C1157      H1159   1.085       .  S
C1157      C1158   1.347       .  D
C1158      H1160   1.085       .  S
C1161      H1163   1.086       .  S
C1161      C1162   1.343       .  D
C1165      H1167   1.086       .  S
C1165      C1166   1.347   1_556  D
C1166      H1168   1.085       .  S
C1169      H1171   1.083       .  S
C1169      C1170   1.337   1_556  D
C1170      H1172   1.087       .  S
C1173      H1175   1.084       .  S
C1173      C1174   1.344       .  D
O1177      C2160   1.265   1_554  A
O1177     Cd2162   2.468   1_554  S
C1178      O2167   1.268       .  A
C1178      O1183   1.250       .  S
C1178      C1203   1.497       .  S
O1179      C1185   1.263       .  A
O1179     Cd1182   2.391       .  S
C1180      O1373   1.265       .  A
C1180      O1188   1.264       .  A
C1180      C1370   1.468       .  S
C1181      O1186   1.268       .  A
C1181      O1184   1.264       .  A
C1181      C1361   1.472       .  S
Cd1182     O1373   2.451       .  S
Cd1182     O1189   2.416       .  S
Cd1182     O1188   2.470       .  S
Cd1182     O1187   2.447       .  S
Cd1182     O1186   2.463       .  S
Cd1182     O1184   2.451       .  S
Cd1182     O1183   2.648       .  S
Cd1182     O1379   2.621       .  S
O1183     Cd2162   2.625   1_554  S
C1185      O1189   1.267       .  A
C1185      C1365   1.455       .  S
O1187      C1374   1.268       .  A
O1190      C1193   1.270       .  A
O1190     Cd1391   2.489       .  S
C1191      O1396   1.266       .  A
C1191      O1196   1.270       .  A
C1191      C1218   1.481       .  S
O1192      C1198   1.264       .  A
O1192     Cd1195   2.433   1_554  S
C1193      O1397   1.265       .  A
C1193      C1369   1.471       .  S
C1194      O1199   1.270       .  A
C1194      O2177   1.269   1_554  A
C1194      C1354   1.471       .  S
Cd1195     O2170   2.487       .  S
Cd1195     O1202   2.458       .  S
Cd1195     O1201   2.418   1_556  S
Cd1195     O1200   2.450   1_556  S
Cd1195     O2176   2.476       .  S
Cd1195     O1199   2.444   1_556  S
Cd1195     O2177   2.426       .  S
O1196     Cd1391   2.478       .  S
O1197      C1390   1.268       .  A
O1197     Cd1391   2.441       .  S
C1198      O1202   1.264   1_554  A
C1198      C1357   1.467       .  S
O1200      C2171   1.266   1_554  A
O1201      C2173   1.265   1_554  A
C1203      C1204   1.409       .  A
C1203      C1208   1.419       .  A
C1204      C1205   1.408       .  A
C1204      H1223   1.082       .  S
C1205      C1228   1.489   1_565  S
C1205      C1206   1.414       .  A
C1206      C1207   1.423       .  A
C1206      C1213   1.406   1_565  A
C1207      C1208   1.424       .  A
C1208      C1209   1.408       .  A
C1209      H1219   1.083       .  S
C1210      C1211   1.403       .  A
C1210      H1220   1.083       .  S
C1211      C1212   1.425       .  A
C1211      C1218   1.412       .  A
C1212      C1215   1.425       .  A
C1213      H1221   1.083       .  S
C1214      C1215   1.404   1_545  A
C1214      H1222   1.083       .  S
C1215      C1216   1.415       .  A
C1216      C1239   1.482   1_565  S
C1216      C1217   1.398       .  A
C1217      C1218   1.398       .  A
C1217      H1224   1.086       .  S
O1225      C1228   1.276       .  A
O1225     Cd1230   2.538       .  S
C1226      O1235   1.267       .  A
C1226      O1231   1.271       .  A
C1226      C1349   1.471       .  S
O1227      C1429   1.268       .  A
O1227     Cd1426   2.400       .  S
C1228      O1236   1.262       .  A
C1229      O1234   1.269       .  A
C1229      O1232   1.268       .  A
C1229      C1345   1.473       .  S
Cd1230     O2207   2.406       .  S
Cd1230     O1237   2.473       .  S
Cd1230     O1236   2.423       .  S
Cd1230     O1235   2.432       .  S
Cd1230     O1231   2.466       .  S
Cd1230     O1234   2.457       .  S
Cd1230     O1232   2.444       .  S
C1233      O2207   1.264       .  A
C1233      O1237   1.263       .  A
C1233      C2346   1.463   1_545  S
O1238      C1241   1.265       .  A
O1238     Cd1243   2.468       .  S
C1239      O1248   1.267       .  A
C1239      O1440   1.263       .  A
O1240      C1246   1.249       .  S
O1240     Cd1243   2.594       .  S
O1240     Cd2223   2.608   1_554  S
C1241      O1249   1.266       .  A
C1241      C1350   1.472       .  S
C1242      O1247   1.262       .  A
C1242      O1245   1.263       .  A
C1242      C1342   1.470       .  S
Cd1243     O1250   2.373       .  S
Cd1243     O1249   2.464       .  S
Cd1243     O1248   2.522       .  S
Cd1243     O1440   2.473       .  S
Cd1243     O1247   2.475       .  S
Cd1243     O1245   2.467       .  S
Cd1243     O1436   2.594       .  S
O1244      C2219   1.262       .  A
O1244     Cd2223   2.453       .  S
C1246      O1250   1.264       .  A
C1246      C1358   1.476   1_545  S
O1251      C1254   1.266       .  A
O1251     Cd1256   2.474       .  S
C1252      O1457   1.267       .  A
C1252      O1257   1.268       .  A
C1252      C1337   1.470       .  S
O1253      C1259   1.268       .  A
O1253     Cd2236   2.481   1_554  S
C1254      O1458   1.265       .  A
C1254      C1279   1.480       .  S
C1255      O1260   1.270       .  A
C1255      O2238   1.265   1_554  A
C1255      C2342   1.476       .  S
Cd1256     O1449   2.486       .  S
Cd1256     O1459   2.416       .  S
Cd1256     O1458   2.471       .  S
Cd1256     O1457   2.420       .  S
Cd1256     O1257   2.450       .  S
Cd1256     O1456   2.494       .  S
Cd1256     O1258   2.426       .  S
O1258      C1451   1.264       .  A
C1259      O1263   1.266   1_554  A
C1259      C1333   1.471       .  S
O1260     Cd2236   2.491   1_554  S
O1261      C2232   1.267   1_554  A
O1261     Cd2236   2.418   1_554  S
O1262      C2234   1.264   1_554  A
O1262     Cd2236   2.457   1_554  S
O1263     Cd2236   2.405       .  S
O1264      C1267   1.271       .  A
O1264     Cd1269   2.518       .  S
C1265      O1274   1.267       .  A
C1265      O1270   1.270       .  A
C1265      C1338   1.474       .  S
O1266      C1272   1.268       .  A
O1266     Cd1269   2.465       .  S
C1267      O1275   1.264       .  A
C1267      C1290   1.488       .  S
C1268      O1273   1.268       .  A
C1268      O1271   1.268       .  A
C1268      C1353   1.470       .  S
Cd1269     O1276   2.406       .  S
Cd1269     O1275   2.470       .  S
Cd1269     O1274   2.439       .  S
Cd1269     O1270   2.467       .  S
Cd1269     O1273   2.449       .  S
Cd1269     O1271   2.436       .  S
C1272      O1276   1.261       .  A
C1272      C1329   1.461       .  S
C1277      C1300   1.484       .  S
C1277      C1278   1.401       .  A
C1277      C1282   1.414       .  A
C1278      C1279   1.403       .  A
C1278      H1297   1.086       .  S
C1279      C1280   1.413       .  A
C1280      C1281   1.421       .  A
C1280      C1287   1.406       .  A
C1281      C1282   1.423       .  A
C1281      C1286   1.421       .  A
C1282      C1283   1.405       .  A
C1283      C1284   1.394       .  A
C1283      H1293   1.083       .  S
C1284      C1285   1.405       .  A
C1284      H1294   1.083       .  S
C1285      C1286   1.422       .  A
C1285      C1292   1.411       .  A
C1286      C1289   1.424       .  A
C1287      C1288   1.396       .  A
C1287      H1295   1.083       .  S
C1288      C1289   1.405       .  A
C1288      H1296   1.083       .  S
C1289      C1290   1.416       .  A
C1290      C1291   1.403       .  A
C1291      C1292   1.404       .  A
C1291      H1298   1.083       .  S
C1292      C1315   1.482       .  S
O1299      C1302   1.270       .  A
O1299     Cd1500   2.446       .  S
C1300      O1505   1.266       .  A
C1300      O1305   1.269       .  A
O1301      C1307   1.270       .  A
O1301     Cd1304   2.482   1_554  S
C1302      O1506   1.268       .  A
C1302      C1325   1.468       .  S
C1303      O1308   1.270       .  A
C1303      O2286   1.266   1_554  A
C1303      C1346   1.473       .  S
Cd1304     O2279   2.450       .  S
Cd1304     O1311   2.409       .  S
Cd1304     O1310   2.409   1_556  S
Cd1304     O1309   2.455   1_556  S
Cd1304     O2285   2.501       .  S
Cd1304     O1308   2.456   1_556  S
Cd1304     O2286   2.431       .  S
O1305     Cd1500   2.495       .  S
O1306      C1499   1.266       .  A
O1306     Cd1500   2.438       .  S
C1307      O1311   1.263   1_554  A
C1307      C1334   1.466       .  S
O1309      C2280   1.265   1_554  A
O1310      C2282   1.269   1_554  A
O1312      C2295   1.267       .  A
O1312     Cd2297   2.489       .  S
C1313      O1322   1.267       .  A
C1313      O1514   1.269       .  A
C1313      C1326   1.470       .  S
O1314      C1320   1.271       .  A
O1314     Cd1317   2.475       .  S
C1315      O1508   1.266       .  A
C1315      O1323   1.266       .  A
C1316      O1321   1.265       .  A
C1316      O1319   1.266       .  A
C1316      C1330   1.466       .  S
Cd1317     O1508   2.482       .  S
Cd1317     O1324   2.401       .  S
Cd1317     O1323   2.479       .  S
Cd1317     O1322   2.435       .  S
Cd1317     O1514   2.450       .  S
Cd1317     O1321   2.461       .  S
Cd1317     O1319   2.399       .  S
O1318      C2293   1.270       .  A
O1318     Cd2297   2.441       .  S
C1320      O1324   1.266       .  A
C1320      C1341   1.473       .  S
C1325      H1327   1.081       .  S
C1326      H1524   1.080       .  S
H1328      C2306   1.078   1_554  S
C1329      H1331   1.088       .  S
C1329      C1330   1.337       .  D
C1330      H1332   1.085   1_554  S
C1333      H1335   1.085       .  S
C1333      C1334   1.340       .  D
C1334      H1336   1.088       .  S
C1337      H1339   1.078       .  S
C1338      H1340   1.078       .  S
C1341      H1343   1.085       .  S
C1341      C1342   1.347       .  D
C1342      H1344   1.086       .  S
C1345      H1347   1.086   1_554  S
C1345      C1346   1.346       .  D
C1346      H1348   1.083       .  S
C1349      H1351   1.087       .  S
C1349      C1350   1.343       .  D
C1350      H1352   1.087       .  S
C1353      H1355   1.085   1_554  S
C1353      C1354   1.345       .  D
C1354      H1356   1.086       .  S
C1357      H1359   1.086       .  S
C1357      C1358   1.344       .  D
C1358      H2340   1.080   1_554  S
H1360      C1554   1.082       .  S
C1361      H1363   1.087       .  S
C1361      C1362   1.347       .  D
C1362      C1451   1.475       .  S
C1362      H1364   1.086       .  S
C1365      H1367   1.083       .  S
C1365      C1366   1.335       .  D
C1366      C1429   1.459   1_565  S
C1366      H1368   1.087       .  S
C1369      H1371   1.086       .  S
C1369      C1370   1.343       .  D
C1370      H1568   1.086       .  S
H1372      C2350   1.086       .  S
C1374      O1379   1.251       .  S
C1374      C1399   1.499       .  S
O1375      C1381   1.264       .  A
O1375     Cd1378   2.410       .  S
C1376      O1569   1.265       .  A
C1376      O1384   1.265       .  A
C1376      C1566   1.473       .  S
C1377      O1382   1.268       .  A
C1377      O1380   1.264       .  A
C1377      C1557   1.475       .  S
Cd1378     O1569   2.462       .  S
Cd1378     O1385   2.425       .  S
Cd1378     O1384   2.480       .  S
Cd1378     O1383   2.456       .  S
Cd1378     O1382   2.474       .  S
Cd1378     O1380   2.469       .  S
Cd1378     O1379   2.648       .  S
Cd1378     O1575   2.606       .  S
C1381      O1385   1.267       .  A
C1381      C1561   1.460       .  S
O1383      C1570   1.268       .  A
O1386      C1389   1.271       .  A
O1386     Cd1587   2.490       .  S
C1387      O1592   1.267       .  A
C1387      O1392   1.272       .  A
C1387      C1414   1.483       .  S
O1388      C1394   1.266       .  A
O1388     Cd1391   2.423       .  S
C1389      O1593   1.266       .  A
C1389      C1565   1.476       .  S
C1390      O1395   1.270       .  A
C1390      C1550   1.474       .  S
Cd1391     O1398   2.433       .  S
Cd1391     O1397   2.402       .  S
Cd1391     O1396   2.462       .  S
Cd1391     O1395   2.453       .  S
O1392     Cd1587   2.480       .  S
O1393      C1586   1.269       .  A
O1393     Cd1587   2.433       .  S
C1394      O1398   1.264       .  A
C1394      C1553   1.462       .  S
C1399      C1400   1.411       .  A
C1399      C1404   1.419       .  A
C1400      C1401   1.410       .  A
C1400      H1419   1.081       .  S
C1401      C1424   1.491   1_565  S
C1401      C1402   1.415       .  A
C1402      C1403   1.423       .  A
C1402      C1409   1.407   1_565  A
C1403      C1404   1.423       .  A
C1404      C1405   1.408       .  A
C1405      H1415   1.083       .  S
C1406      C1407   1.402       .  A
C1406      H1416   1.083       .  S
C1407      C1408   1.426       .  A
C1407      C1414   1.413       .  A
C1408      C1411   1.425       .  A
C1409      H1417   1.083       .  S
C1410      C1411   1.404   1_545  A
C1410      H1418   1.083       .  S
C1411      C1412   1.415       .  A
C1412      C1435   1.482   1_565  S
C1412      C1413   1.398       .  A
C1413      C1414   1.398       .  A
C1413      H1420   1.084       .  S
O1421      C1424   1.273       .  A
O1421     Cd1426   2.515       .  S
C1422      O1431   1.267       .  A
C1422      O1427   1.273       .  A
C1422      C1545   1.470       .  S
O1423      C1625   1.268       .  A
O1423     Cd1622   2.418       .  S
C1424      O1432   1.265       .  A
C1425      O1430   1.270       .  A
C1425      O1428   1.269       .  A
C1425      C1541   1.474       .  S
Cd1426     O1433   2.428       .  S
Cd1426     O1432   2.462       .  S
Cd1426     O1431   2.415       .  S
Cd1426     O1427   2.467       .  S
Cd1426     O1430   2.445       .  S
Cd1426     O1428   2.437       .  S
C1429      O1433   1.262       .  A
O1434      C1437   1.266       .  A
O1434     Cd1439   2.488       .  S
C1435      O1444   1.266       .  A
C1435      O1636   1.264       .  A
O1436      C1442   1.248       .  S
O1436     Cd1439   2.573       .  S
C1437      O1445   1.266       .  A
C1437      C1546   1.475       .  S
C1438      O1443   1.261       .  A
C1438      O1441   1.262       .  A
C1438      C1538   1.471       .  S
Cd1439     O1446   2.364       .  S
Cd1439     O1445   2.460       .  S
Cd1439     O1444   2.519       .  S
Cd1439     O1636   2.480       .  S
Cd1439     O1443   2.477       .  S
Cd1439     O1441   2.467       .  S
Cd1439     O1632   2.590       .  S
C1442      O1446   1.264       .  A
C1442      C1554   1.472   1_545  S
O1447      C1450   1.266       .  A
O1447     Cd1452   2.477       .  S
C1448      O1653   1.267       .  A
C1448      O1453   1.268       .  A
C1448      C1533   1.471       .  S
O1449      C1455   1.265       .  A
C1450      O1654   1.265       .  A
C1450      C1475   1.479       .  S
C1451      O1456   1.270       .  A
Cd1452     O1645   2.478       .  S
Cd1452     O1655   2.404       .  S
Cd1452     O1654   2.470       .  S
Cd1452     O1653   2.435       .  S
Cd1452     O1453   2.456       .  S
Cd1452     O1652   2.489       .  S
Cd1452     O1454   2.423       .  S
O1454      C1647   1.265       .  A
C1455      O1459   1.265       .  A
C1455      C1529   1.473       .  S
O1460      C1463   1.269       .  A
O1460     Cd1465   2.504       .  S
C1461      O1470   1.267       .  A
C1461      O1466   1.270       .  A
C1461      C1534   1.474       .  S
O1462      C1468   1.267       .  A
O1462     Cd1465   2.485       .  S
C1463      O1471   1.264       .  A
C1463      C1486   1.488       .  S
C1464      O1469   1.268       .  A
C1464      O1467   1.267       .  A
C1464      C1549   1.475       .  S
Cd1465     O1472   2.413       .  S
Cd1465     O1471   2.486       .  S
Cd1465     O1470   2.441       .  S
Cd1465     O1466   2.469       .  S
Cd1465     O1469   2.465       .  S
Cd1465     O1467   2.451       .  S
C1468      O1472   1.261       .  A
C1468      C1525   1.464       .  S
C1473      C1496   1.485       .  S
C1473      C1474   1.402       .  A
C1473      C1478   1.415       .  A
C1474      C1475   1.403       .  A
C1474      H1493   1.085       .  S
C1475      C1476   1.411       .  A
C1476      C1477   1.420       .  A
C1476      C1483   1.406       .  A
C1477      C1478   1.425       .  A
C1477      C1482   1.421       .  A
C1478      C1479   1.404       .  A
C1479      C1480   1.394       .  A
C1479      H1489   1.083       .  S
C1480      C1481   1.406       .  A
C1480      H1490   1.083       .  S
C1481      C1482   1.420       .  A
C1481      C1488   1.410       .  A
C1482      C1485   1.425       .  A
C1483      C1484   1.395       .  A
C1483      H1491   1.083       .  S
C1484      C1485   1.404       .  A
C1484      H1492   1.083       .  S
C1485      C1486   1.417       .  A
C1486      C1487   1.402       .  A
C1487      C1488   1.402       .  A
C1487      H1494   1.085       .  S
C1488      C1511   1.477       .  S
O1495      C1498   1.272       .  A
O1495     Cd1696   2.458       .  S
C1496      O1701   1.265       .  A
C1496      O1501   1.271       .  A
O1497      C1503   1.271       .  A
O1497     Cd1500   2.490       .  S
C1498      O1702   1.268       .  A
C1498      C1521   1.472       .  S
C1499      O1504   1.271       .  A
C1499      C1542   1.475       .  S
Cd1500     O1507   2.403       .  S
Cd1500     O1506   2.403       .  S
Cd1500     O1505   2.460       .  S
Cd1500     O1504   2.467       .  S
O1501     Cd1696   2.496       .  S
O1502      C1695   1.267       .  A
O1502     Cd1696   2.428       .  S
C1503      O1507   1.263       .  A
C1503      C1530   1.467       .  S
C1509      O1518   1.267       .  A
C1509      O1710   1.268       .  A
C1509      C1522   1.468       .  S
O1510      C1516   1.270       .  A
O1510     Cd1513   2.486       .  S
C1511      O1704   1.265       .  A
C1511      O1519   1.265       .  A
C1512      O1517   1.264       .  A
C1512      O1515   1.265       .  A
C1512      C1526   1.470       .  S
Cd1513     O1704   2.469       .  S
Cd1513     O1520   2.406       .  S
Cd1513     O1519   2.466       .  S
Cd1513     O1518   2.427       .  S
Cd1513     O1710   2.441       .  S
Cd1513     O1517   2.480       .  S
Cd1513     O1515   2.420       .  S
C1516      O1520   1.265       .  A
C1516      C1537   1.474       .  S
C1521      H1523   1.082       .  S
C1522      H1720   1.082       .  S
C1525      H1527   1.088       .  S
C1525      C1526   1.338       .  D
C1526      H1528   1.085       .  S
C1529      H1531   1.086       .  S
C1529      C1530   1.340       .  D
C1530      H1532   1.088       .  S
C1533      H1535   1.080       .  S
C1534      H1536   1.079       .  S
C1537      H1539   1.085       .  S
C1537      C1538   1.347       .  D
C1538      H1540   1.087       .  S
C1541      H1543   1.080       .  S
C1541      C1542   1.348       .  D
C1542      H1544   1.081       .  S
C1545      H1547   1.088       .  S
C1545      C1546   1.343       .  D
C1546      H1548   1.087       .  S
C1549      H1551   1.086       .  S
C1549      C1550   1.346       .  D
C1550      H1552   1.085       .  S
C1553      H1555   1.085       .  S
C1553      C1554   1.343       .  D
H1556      C1750   1.080       .  S
C1557      H1559   1.087       .  S
C1557      C1558   1.348       .  D
C1558      C1647   1.477       .  S
C1558      H1560   1.086       .  S
C1561      H1563   1.083       .  S
C1561      C1562   1.337       .  D
C1562      C1625   1.464   1_565  S
C1562      H1564   1.088       .  S
C1565      H1567   1.085       .  S
C1565      C1566   1.345       .  D
C1566      H1764   1.086       .  S
C1570      O1575   1.249       .  S
C1570      C1595   1.497       .  S
O1571      C1577   1.264       .  A
O1571     Cd1574   2.408       .  S
C1572      O1765   1.264       .  A
C1572      O1580   1.265       .  A
C1572      C1762   1.471       .  S
C1573      O1578   1.268       .  A
C1573      O1576   1.264       .  A
C1573      C1753   1.474       .  S
Cd1574     O1765   2.453       .  S
Cd1574     O1581   2.418       .  S
Cd1574     O1580   2.480       .  S
Cd1574     O1579   2.453       .  S
Cd1574     O1578   2.477       .  S
Cd1574     O1576   2.459       .  S
Cd1574     O1575   2.634       .  S
Cd1574     O1771   2.609       .  S
C1577      O1581   1.266       .  A
C1577      C1757   1.458       .  S
O1579      C1766   1.268       .  A
O1582      C1585   1.270       .  A
O1582     Cd1783   2.489       .  S
C1583      O1788   1.267       .  A
C1583      O1588   1.271       .  A
C1583      C1610   1.483       .  S
O1584      C1590   1.265       .  A
O1584     Cd1587   2.423       .  S
C1585      O1789   1.265       .  A
C1585      C1761   1.475       .  S
C1586      O1591   1.271       .  A
C1586      C1746   1.475       .  S
Cd1587     O1594   2.448       .  S
Cd1587     O1593   2.421       .  S
Cd1587     O1592   2.463       .  S
Cd1587     O1591   2.453       .  S
O1588     Cd1783   2.483       .  S
O1589      C1782   1.268       .  A
O1589     Cd1783   2.429       .  S
C1590      O1594   1.264       .  A
C1590      C1749   1.465       .  S
C1595      C1596   1.409       .  A
C1595      C1600   1.416       .  A
C1596      C1597   1.408       .  A
C1596      H1615   1.082       .  S
C1597      C1620   1.491   1_565  S
C1597      C1598   1.416       .  A
C1598      C1599   1.423       .  A
C1598      C1605   1.407   1_565  A
C1599      C1600   1.423       .  A
C1600      C1601   1.407       .  A
C1601      H1611   1.083       .  S
C1602      C1603   1.403       .  A
C1602      H1612   1.083       .  S
C1603      C1604   1.426       .  A
C1603      C1610   1.415       .  A
C1604      C1607   1.424       .  A
C1605      H1613   1.083       .  S
C1606      C1607   1.403   1_545  A
C1606      H1614   1.083       .  S
C1607      C1608   1.411       .  A
C1608      C1631   1.477   1_565  S
C1608      C1609   1.398       .  A
C1609      C1610   1.398       .  A
C1609      H1616   1.084       .  S
O1617      C1620   1.274       .  A
O1617     Cd1622   2.533       .  S
C1618      O1627   1.267       .  A
C1618      O1623   1.271       .  A
C1618      C1741   1.469       .  S
O1619      C1821   1.267       .  A
O1619     Cd1818   2.413       .  S
C1620      O1628   1.263       .  A
C1621      O1626   1.270       .  A
C1621      O1624   1.269       .  A
C1621      C1737   1.472       .  S
Cd1622     O1629   2.435       .  S
Cd1622     O1628   2.454       .  S
Cd1622     O1627   2.422       .  S
Cd1622     O1623   2.473       .  S
Cd1622     O1626   2.444       .  S
Cd1622     O1624   2.439       .  S
C1625      O1629   1.263       .  A
O1630      C1633   1.265       .  A
O1630     Cd1635   2.477       .  S
C1631      O1640   1.266       .  A
C1631      O1832   1.264       .  A
O1632      C1638   1.248       .  S
O1632     Cd1635   2.574       .  S
C1633      O1641   1.265       .  A
C1633      C1742   1.473       .  S
C1634      O1639   1.262       .  A
C1634      O1637   1.262       .  A
C1634      C1734   1.468       .  S
Cd1635     O1642   2.371       .  S
Cd1635     O1641   2.457       .  S
Cd1635     O1640   2.495       .  S
Cd1635     O1832   2.471       .  S
Cd1635     O1639   2.478       .  S
Cd1635     O1637   2.455       .  S
Cd1635     O1828   2.572       .  S
C1638      O1642   1.264       .  A
C1638      C1750   1.475   1_545  S
O1643      C1646   1.266       .  A
O1643     Cd1648   2.494       .  S
C1644      O1849   1.267       .  A
C1644      O1649   1.269       .  A
C1644      C1729   1.472       .  S
O1645      C1651   1.266       .  A
C1646      O1850   1.265       .  A
C1646      C1671   1.484       .  S
C1647      O1652   1.270       .  A
Cd1648     O1841   2.498       .  S
Cd1648     O1851   2.401       .  S
Cd1648     O1850   2.481       .  S
Cd1648     O1849   2.436       .  S
Cd1648     O1649   2.458       .  S
Cd1648     O1848   2.492       .  S
Cd1648     O1650   2.419       .  S
O1650      C1843   1.264       .  A
C1651      O1655   1.266       .  A
C1651      C1725   1.469       .  S
O1656      C1659   1.272       .  A
O1656     Cd1661   2.531       .  S
C1657      O1666   1.268       .  A
C1657      O1662   1.271       .  A
C1657      C1730   1.472       .  S
O1658      C1664   1.268       .  A
O1658     Cd1661   2.462       .  S
C1659      O1667   1.264       .  A
C1659      C1682   1.487       .  S
C1660      O1665   1.268       .  A
C1660      O1663   1.267       .  A
C1660      C1745   1.473       .  S
Cd1661     O1668   2.417       .  S
Cd1661     O1667   2.461       .  S
Cd1661     O1666   2.425       .  S
Cd1661     O1662   2.462       .  S
Cd1661     O1665   2.451       .  S
Cd1661     O1663   2.442       .  S
C1664      O1668   1.262       .  A
C1664      C1721   1.462       .  S
C1669      C1692   1.484       .  S
C1669      C1670   1.402       .  A
C1669      C1674   1.413       .  A
C1670      C1671   1.403       .  A
C1670      H1689   1.084       .  S
C1671      C1672   1.414       .  A
C1672      C1673   1.422       .  A
C1672      C1679   1.405       .  A
C1673      C1674   1.424       .  A
C1673      C1678   1.421       .  A
C1674      C1675   1.405       .  A
C1675      C1676   1.394       .  A
C1675      H1685   1.083       .  S
C1676      C1677   1.405       .  A
C1676      H1686   1.083       .  S
C1677      C1678   1.421       .  A
C1677      C1684   1.411       .  A
C1678      C1681   1.424       .  A
C1679      C1680   1.396       .  A
C1679      H1687   1.083       .  S
C1680      C1681   1.405       .  A
C1680      H1688   1.083       .  S
C1681      C1682   1.416       .  A
C1682      C1683   1.402       .  A
C1683      C1684   1.403       .  A
C1683      H1690   1.084       .  S
C1684      C1707   1.479       .  S
O1691      C1694   1.271       .  A
O1691     Cd1892   2.462       .  S
C1692      O1897   1.265       .  A
C1692      O1697   1.270       .  A
O1693      C1699   1.270       .  A
O1693     Cd1696   2.472       .  S
C1694      O1898   1.268       .  A
C1694      C1717   1.472       .  S
C1695      O1700   1.271       .  A
C1695      C1738   1.473       .  S
Cd1696     O1703   2.406       .  S
Cd1696     O1702   2.408       .  S
Cd1696     O1701   2.459       .  S
Cd1696     O1700   2.458       .  S
O1697     Cd1892   2.504       .  S
O1698      C1891   1.267       .  A
O1698     Cd1892   2.429       .  S
C1699      O1703   1.262       .  A
C1699      C1726   1.464       .  S
C1705      O1714   1.267       .  A
C1705      O1906   1.269       .  A
C1705      C1718   1.468       .  S
O1706      C1712   1.271       .  A
O1706     Cd1709   2.484       .  S
C1707      O1900   1.267       .  A
C1707      O1715   1.265       .  A
C1708      O1713   1.265       .  A
C1708      O1711   1.266       .  A
C1708      C1722   1.467       .  S
Cd1709     O1900   2.479       .  S
Cd1709     O1716   2.393       .  S
Cd1709     O1715   2.462       .  S
Cd1709     O1714   2.425       .  S
Cd1709     O1906   2.450       .  S
Cd1709     O1713   2.469       .  S
Cd1709     O1711   2.401       .  S
C1712      O1716   1.265       .  A
C1712      C1733   1.472       .  S
C1717      H1719   1.082       .  S
C1718      H1916   1.079       .  S
C1721      H1723   1.088       .  S
C1721      C1722   1.338       .  D
C1722      H1724   1.086       .  S
C1725      H1727   1.084       .  S
C1725      C1726   1.338       .  D
C1726      H1728   1.088       .  S
C1729      H1731   1.082       .  S
C1730      H1732   1.082       .  S
C1733      H1735   1.086       .  S
C1733      C1734   1.346       .  D
C1734      H1736   1.086       .  S
C1737      H1739   1.082       .  S
C1737      C1738   1.346       .  D
C1738      H1740   1.081       .  S
C1741      H1743   1.088       .  S
C1741      C1742   1.343       .  D
C1742      H1744   1.087       .  S
C1745      H1747   1.084       .  S
C1745      C1746   1.346       .  D
C1746      H1748   1.085       .  S
C1749      H1751   1.085       .  S
C1749      C1750   1.344       .  D
H1752      C1946   1.080       .  S
C1753      H1755   1.087       .  S
C1753      C1754   1.349       .  D
C1754      C1843   1.475       .  S
C1754      H1756   1.086       .  S
C1757      H1759   1.083       .  S
C1757      C1758   1.337       .  D
C1758      C1821   1.462   1_565  S
C1758      H1760   1.087       .  S
C1761      H1763   1.085       .  S
C1761      C1762   1.344       .  D
C1762      H1960   1.086       .  S
C1766      O1771   1.247       .  S
C1766      C1791   1.491       .  S
O1767      C1773   1.264       .  A
O1767     Cd1770   2.416       .  S
C1768      O1961   1.265       .  A
C1768      O1776   1.264       .  A
C1768      C1958   1.473       .  S
C1769      O1774   1.268       .  A
C1769      O1772   1.265       .  A
C1769      C1949   1.473       .  S
Cd1770     O1961   2.458       .  S
Cd1770     O1777   2.413       .  S
Cd1770     O1776   2.481       .  S
Cd1770     O1775   2.456       .  S
Cd1770     O1774   2.467       .  S
Cd1770     O1772   2.449       .  S
Cd1770     O1771   2.640       .  S
Cd1770     O1967   2.631       .  S
C1773      O1777   1.265       .  A
C1773      C1953   1.458       .  S
O1775      C1962   1.269       .  A
O1778      C1781   1.271       .  A
O1778     Cd1979   2.495       .  S
C1779      O1984   1.267       .  A
C1779      O1784   1.271       .  A
C1779      C1806   1.482       .  S
O1780      C1786   1.266       .  A
O1780     Cd1783   2.426       .  S
C1781      O1985   1.265       .  A
C1781      C1957   1.477       .  S
C1782      O1787   1.271       .  A
C1782      C1942   1.474       .  S
Cd1783     O1790   2.429       .  S
Cd1783     O1789   2.421       .  S
Cd1783     O1788   2.470       .  S
Cd1783     O1787   2.457       .  S
O1784     Cd1979   2.483       .  S
O1785      C1978   1.269       .  A
O1785     Cd1979   2.433       .  S
C1786      O1790   1.264       .  A
C1786      C1945   1.461       .  S
C1791      C1792   1.408       .  A
C1791      C1796   1.415       .  A
C1792      C1793   1.405       .  A
C1792      H1811   1.082       .  S
C1793      C1816   1.487   1_565  S
C1793      C1794   1.412       .  A
C1794      C1795   1.423       .  A
C1794      C1801   1.406   1_565  A
C1795      C1796   1.422       .  A
C1796      C1797   1.408       .  A
C1797      H1807   1.083       .  S
C1798      C1799   1.403       .  A
C1798      H1808   1.083       .  S
C1799      C1800   1.426       .  A
C1799      C1806   1.414       .  A
C1800      C1803   1.424       .  A
C1801      H1809   1.083       .  S
C1802      C1803   1.403   1_545  A
C1802      H1810   1.083       .  S
C1803      C1804   1.411       .  A
C1804      C1827   1.479   1_565  S
C1804      C1805   1.398       .  A
C1805      C1806   1.397       .  A
C1805      H1812   1.085       .  S
O1813      C1816   1.270       .  A
O1813     Cd1818   2.525       .  S
C1814      O1823   1.268       .  A
C1814      O1819   1.267       .  A
C1814      C1937   1.471       .  S
O1815      C2017   1.265       .  A
O1815     Cd2014   2.411       .  S
C1816      O1824   1.262       .  A
C1817      O1822   1.269       .  A
C1817      O1820   1.267       .  A
C1817      C1933   1.472       .  S
Cd1818     O1825   2.441       .  S
Cd1818     O1824   2.458       .  S
Cd1818     O1823   2.419       .  S
Cd1818     O1819   2.469       .  S
Cd1818     O1822   2.456       .  S
Cd1818     O1820   2.446       .  S
C1821      O1825   1.263       .  A
O1826      C1829   1.272       .  A
O1826     Cd1831   2.482       .  S
C1827      O1836   1.269       .  A
C1827      O2028   1.261       .  A
O1828      C1834   1.246       .  S
O1828     Cd1831   2.538       .  S
C1829      O1837   1.263       .  A
C1829      C1938   1.467       .  S
C1830      O1835   1.262       .  A
C1830      O1833   1.262       .  A
C1830      C1930   1.466       .  S
Cd1831     O1838   2.369       .  S
Cd1831     O1837   2.409       .  S
Cd1831     O1836   2.528       .  S
Cd1831     O2028   2.434       .  S
Cd1831     O1835   2.465       .  S
Cd1831     O1833   2.447       .  S
Cd1831     O2024   2.593       .  S
C1834      O1838   1.264       .  A
C1834      C1946   1.469   1_545  S
O1839      C1842   1.266       .  A
O1839     Cd1844   2.484       .  S
C1840      O2045   1.267       .  A
C1840      O1845   1.270       .  A
C1840      C1925   1.468       .  S
O1841      C1847   1.267       .  A
C1842      O2046   1.265       .  A
C1842      C1867   1.482       .  S
C1843      O1848   1.270       .  A
Cd1844     O2037   2.486       .  S
Cd1844     O2047   2.419       .  S
Cd1844     O2046   2.479       .  S
Cd1844     O2045   2.412       .  S
Cd1844     O1845   2.451       .  S
Cd1844     O2044   2.487       .  S
Cd1844     O1846   2.427       .  S
O1846      C2039   1.265       .  A
C1847      O1851   1.265       .  A
C1847      C1921   1.472       .  S
O1852      C1855   1.268       .  A
O1852     Cd1857   2.495       .  S
C1853      O1862   1.267       .  A
C1853      O1858   1.271       .  A
C1853      C1926   1.473       .  S
O1854      C1860   1.268       .  A
O1854     Cd1857   2.487       .  S
C1855      O1863   1.265       .  A
C1855      C1878   1.486       .  S
C1856      O1861   1.269       .  A
C1856      O1859   1.267       .  A
C1856      C1941   1.473       .  S
Cd1857     O1864   2.411       .  S
Cd1857     O1863   2.482       .  S
Cd1857     O1862   2.413       .  S
Cd1857     O1858   2.471       .  S
Cd1857     O1861   2.461       .  S
Cd1857     O1859   2.437       .  S
C1860      O1864   1.261       .  A
C1860      C1917   1.464       .  S
C1865      C1888   1.484       .  S
C1865      C1866   1.401       .  A
C1865      C1870   1.414       .  A
C1866      C1867   1.403       .  A
C1866      H1885   1.085       .  S
C1867      C1868   1.413       .  A
C1868      C1869   1.422       .  A
C1868      C1875   1.405       .  A
C1869      C1870   1.423       .  A
C1869      C1874   1.421       .  A
C1870      C1871   1.405       .  A
C1871      C1872   1.394       .  A
C1871      H1881   1.083       .  S
C1872      C1873   1.404       .  A
C1872      H1882   1.083       .  S
C1873      C1874   1.422       .  A
C1873      C1880   1.411       .  A
C1874      C1877   1.424       .  A
C1875      C1876   1.396       .  A
C1875      H1883   1.083       .  S
C1876      C1877   1.405       .  A
C1876      H1884   1.083       .  S
C1877      C1878   1.416       .  A
C1878      C1879   1.402       .  A
C1879      C1880   1.402       .  A
C1879      H1886   1.085       .  S
C1880      C1903   1.481       .  S
O1887      C1890   1.271       .  A
O1887     Cd2088   2.465       .  S
C1888      O2093   1.265       .  A
C1888      O1893   1.269       .  A
O1889      C1895   1.269       .  A
O1889     Cd1892   2.481       .  S
C1890      O2094   1.267       .  A
C1890      C1913   1.472       .  S
C1891      O1896   1.270       .  A
C1891      C1934   1.475       .  S
Cd1892     O1899   2.413       .  S
Cd1892     O1898   2.408       .  S
Cd1892     O1897   2.460       .  S
Cd1892     O1896   2.472       .  S
O1893     Cd2088   2.507       .  S
O1894      C2087   1.268       .  A
O1894     Cd2088   2.430       .  S
C1895      O1899   1.263       .  A
C1895      C1922   1.466       .  S
C1901      O1910   1.266       .  A
C1901      O2102   1.269       .  A
C1901      C1914   1.465       .  S
O1902      C1908   1.270       .  A
O1902     Cd1905   2.478       .  S
C1903      O2096   1.266       .  A
C1903      O1911   1.266       .  A
C1904      O1909   1.265       .  A
C1904      O1907   1.266       .  A
C1904      C1918   1.469       .  S
Cd1905     O2096   2.471       .  S
Cd1905     O1912   2.396       .  S
Cd1905     O1911   2.481       .  S
Cd1905     O1910   2.415       .  S
Cd1905     O2102   2.446       .  S
Cd1905     O1909   2.471       .  S
Cd1905     O1907   2.408       .  S
C1908      O1912   1.265       .  A
C1908      C1929   1.472       .  S
C1913      H1915   1.081       .  S
C1914      H2112   1.081       .  S
C1917      H1919   1.088       .  S
C1917      C1918   1.337       .  D
C1918      H1920   1.085       .  S
C1921      H1923   1.085       .  S
C1921      C1922   1.341       .  D
C1922      H1924   1.088       .  S
C1925      H1927   1.078       .  S
C1926      H1928   1.083       .  S
C1929      H1931   1.085       .  S
C1929      C1930   1.347       .  D
C1930      H1932   1.087       .  S
C1933      H1935   1.086       .  S
C1933      C1934   1.345       .  D
C1934      H1936   1.087       .  S
C1937      H1939   1.086       .  S
C1937      C1938   1.338       .  D
C1938      H1940   1.087       .  S
C1941      H1943   1.085       .  S
C1941      C1942   1.347       .  D
C1942      H1944   1.085       .  S
C1945      H1947   1.084       .  S
C1945      C1946   1.342       .  D
H1948      C2142   1.076       .  S
C1949      H1951   1.087       .  S
C1949      C1950   1.348       .  D
C1950      C2039   1.475       .  S
C1950      H1952   1.086       .  S
C1953      H1955   1.083       .  S
C1953      C1954   1.338       .  D
C1954      C2017   1.463   1_565  S
C1954      H1956   1.087       .  S
C1957      H1959   1.085       .  S
C1957      C1958   1.346       .  D
C1958      H2156   1.086       .  S
C1962      O1967   1.253       .  S
C1962      C1987   1.501       .  S
O1963      C1969   1.264       .  A
O1963     Cd1966   2.401       .  S
C1964      O2157   1.264       .  A
C1964      O1972   1.265       .  A
C1964      C2154   1.473       .  S
C1965      O1970   1.267       .  A
C1965      O1968   1.264       .  A
C1965      C2145   1.472       .  S
Cd1966     O2157   2.464       .  S
Cd1966     O1973   2.397       .  S
Cd1966     O1972   2.492       .  S
Cd1966     O1971   2.459       .  S
Cd1966     O1970   2.464       .  S
Cd1966     O1968   2.457       .  S
Cd1966     O1967   2.666       .  S
Cd1966     O2163   2.633       .  S
C1969      O1973   1.265       .  A
C1969      C2149   1.454       .  S
O1971      C2158   1.269       .  A
O1974      C1977   1.271       .  A
O1974     Cd2175   2.486       .  S
C1975      O2180   1.267       .  A
C1975      O1980   1.271       .  A
C1975      C2002   1.482       .  S
O1976      C1982   1.265       .  A
O1976     Cd1979   2.436       .  S
C1977      O2181   1.266       .  A
C1977      C2153   1.476       .  S
C1978      O1983   1.271       .  A
C1978      C2138   1.474       .  S
Cd1979     O1986   2.440       .  S
Cd1979     O1985   2.423       .  S
Cd1979     O1984   2.472       .  S
Cd1979     O1983   2.453       .  S
O1980     Cd2175   2.482       .  S
O1981      C2174   1.268       .  A
O1981     Cd2175   2.441       .  S
C1982      O1986   1.264       .  A
C1982      C2141   1.465       .  S
C1987      C1988   1.409       .  A
C1987      C1992   1.422       .  A
C1988      C1989   1.409       .  A
C1988      H2007   1.081       .  S
C1989      C2012   1.490   1_565  S
C1989      C1990   1.413       .  A
C1990      C1991   1.422       .  A
C1990      C1997   1.407   1_565  A
C1991      C1992   1.426       .  A
C1992      C1993   1.408       .  A
C1993      H2003   1.083       .  S
C1994      C1995   1.403       .  A
C1994      H2004   1.083       .  S
C1995      C1996   1.425       .  A
C1995      C2002   1.414       .  A
C1996      C1999   1.425       .  A
C1997      H2005   1.083       .  S
C1998      C1999   1.404   1_545  A
C1998      H2006   1.083       .  S
C1999      C2000   1.413       .  A
C2000      C2023   1.481   1_565  S
C2000      C2001   1.398       .  A
C2001      C2002   1.399       .  A
C2001      H2008   1.085       .  S
O2009      C2012   1.273       .  A
O2009     Cd2014   2.537       .  S
C2010      O2019   1.269       .  A
C2010      O2015   1.266       .  A
C2010      C2133   1.472       .  S
O2011      C2213   1.264       .  A
O2011     Cd2210   2.421       .  S
C2012      O2020   1.262       .  A
C2013      O2018   1.268       .  A
C2013      O2016   1.266       .  A
C2013      C2129   1.472       .  S
Cd2014     O2021   2.455       .  S
Cd2014     O2020   2.455       .  S
Cd2014     O2019   2.436       .  S
Cd2014     O2015   2.469       .  S
Cd2014     O2018   2.462       .  S
Cd2014     O2016   2.456       .  S
C2017      O2021   1.262       .  A
O2022      C2025   1.273       .  A
O2022     Cd2027   2.488       .  S
C2023      O2032   1.268       .  A
C2023      O2224   1.263       .  A
O2024      C2030   1.249       .  S
O2024     Cd2027   2.555       .  S
C2025      O2033   1.263       .  A
C2025      C2134   1.470       .  S
C2026      O2031   1.261       .  A
C2026      O2029   1.263       .  A
C2026      C2126   1.468       .  S
Cd2027     O2034   2.373       .  S
Cd2027     O2033   2.423       .  S
Cd2027     O2032   2.519       .  S
Cd2027     O2224   2.454       .  S
Cd2027     O2031   2.467       .  S
Cd2027     O2029   2.463       .  S
Cd2027     O2220   2.605       .  S
C2030      O2034   1.266       .  A
C2030      C2142   1.474   1_545  S
O2035      C2038   1.265       .  A
O2035     Cd2040   2.486       .  S
C2036      O2241   1.267       .  A
C2036      O2041   1.269       .  A
C2036      C2121   1.470       .  S
O2037      C2043   1.265       .  A
C2038      O2242   1.264       .  A
C2038      C2063   1.481       .  S
C2039      O2044   1.270       .  A
Cd2040     O2233   2.484       .  S
Cd2040     O2243   2.407       .  S
Cd2040     O2242   2.475       .  S
Cd2040     O2241   2.430       .  S
Cd2040     O2041   2.458       .  S
Cd2040     O2240   2.488       .  S
Cd2040     O2042   2.425       .  S
O2042      C2235   1.265       .  A
C2043      O2047   1.265       .  A
C2043      C2117   1.471       .  S
O2048      C2051   1.270       .  A
O2048     Cd2053   2.505       .  S
C2049      O2058   1.267       .  A
C2049      O2054   1.271       .  A
C2049      C2122   1.469       .  S
O2050      C2056   1.268       .  A
O2050     Cd2053   2.471       .  S
C2051      O2059   1.265       .  A
C2051      C2074   1.484       .  S
C2052      O2057   1.268       .  A
C2052      O2055   1.266       .  A
C2052      C2137   1.473       .  S
Cd2053     O2060   2.412       .  S
Cd2053     O2059   2.466       .  S
Cd2053     O2058   2.404       .  S
Cd2053     O2054   2.466       .  S
Cd2053     O2057   2.458       .  S
Cd2053     O2055   2.444       .  S
C2056      O2060   1.262       .  A
C2056      C2113   1.463       .  S
C2061      C2084   1.484       .  S
C2061      C2062   1.402       .  A
C2061      C2066   1.413       .  A
C2062      C2063   1.404       .  A
C2062      H2081   1.085       .  S
C2063      C2064   1.412       .  A
C2064      C2065   1.421       .  A
C2064      C2071   1.406       .  A
C2065      C2066   1.424       .  A
C2065      C2070   1.420       .  A
C2066      C2067   1.404       .  A
C2067      C2068   1.394       .  A
C2067      H2077   1.083       .  S
C2068      C2069   1.405       .  A
C2068      H2078   1.083       .  S
C2069      C2070   1.420       .  A
C2069      C2076   1.410       .  A
C2070      C2073   1.424       .  A
C2071      C2072   1.395       .  A
C2071      H2079   1.083       .  S
C2072      C2073   1.404       .  A
C2072      H2080   1.083       .  S
C2073      C2074   1.415       .  A
C2074      C2075   1.400       .  A
C2075      C2076   1.401       .  A
C2075      H2082   1.085       .  S
C2076      C2099   1.476       .  S
O2083      C2086   1.271       .  A
O2083     Cd2284   2.445       .  S
C2084      O2289   1.265       .  A
C2084      O2089   1.269       .  A
O2085      C2091   1.269       .  A
O2085     Cd2088   2.481       .  S
C2086      O2290   1.268       .  A
C2086      C2109   1.469       .  S
C2087      O2092   1.270       .  A
C2087      C2130   1.475       .  S
Cd2088     O2095   2.411       .  S
Cd2088     O2094   2.409       .  S
Cd2088     O2093   2.462       .  S
Cd2088     O2092   2.462       .  S
O2089     Cd2284   2.498       .  S
O2090      C2283   1.266       .  A
O2090     Cd2284   2.438       .  S
C2091      O2095   1.262       .  A
C2091      C2118   1.466       .  S
C2097      O2106   1.267       .  A
C2097      O2298   1.268       .  A
C2097      C2110   1.467       .  S
O2098      C2104   1.270       .  A
O2098     Cd2101   2.479       .  S
C2099      O2292   1.266       .  A
C2099      O2107   1.264       .  A
C2100      O2105   1.265       .  A
C2100      O2103   1.266       .  A
C2100      C2114   1.469       .  S
Cd2101     O2292   2.476       .  S
Cd2101     O2108   2.395       .  S
Cd2101     O2107   2.459       .  S
Cd2101     O2106   2.427       .  S
Cd2101     O2298   2.445       .  S
Cd2101     O2105   2.468       .  S
Cd2101     O2103   2.412       .  S
C2104      O2108   1.264       .  A
C2104      C2125   1.472       .  S
C2109      H2111   1.077       .  S
C2110      H2308   1.081       .  S
C2113      H2115   1.088       .  S
C2113      C2114   1.337       .  D
C2114      H2116   1.086       .  S
C2117      H2119   1.085       .  S
C2117      C2118   1.339       .  D
C2118      H2120   1.088       .  S
C2121      H2123   1.079       .  S
C2122      H2124   1.079       .  S
C2125      H2127   1.086       .  S
C2125      C2126   1.348       .  D
C2126      H2128   1.085       .  S
C2129      H2131   1.087       .  S
C2129      C2130   1.346       .  D
C2130      H2132   1.088       .  S
C2133      H2135   1.086       .  S
C2133      C2134   1.337       .  D
C2134      H2136   1.088       .  S
C2137      H2139   1.085       .  S
C2137      C2138   1.346       .  D
C2138      H2140   1.085       .  S
C2141      H2143   1.083       .  S
C2141      C2142   1.343       .  D
H2144      C2338   1.079       .  S
C2145      H2147   1.086       .  S
C2145      C2146   1.347       .  D
C2146      C2235   1.475       .  S
C2146      H2148   1.086       .  S
C2149      H2151   1.083       .  S
C2149      C2150   1.337       .  D
C2150      C2213   1.462   1_565  S
C2150      H2152   1.087       .  S
C2153      H2155   1.085       .  S
C2153      C2154   1.345       .  D
C2154      H2352   1.085       .  S
C2158      O2163   1.252       .  S
C2158      C2183   1.501       .  S
O2159      C2165   1.265       .  A
O2159     Cd2162   2.418       .  S
C2160      O2168   1.265       .  A
C2160      C2350   1.474   1_556  S
C2161      O2166   1.268       .  A
C2161      O2164   1.264   1_556  A
C2161      C2341   1.474       .  S
Cd2162     O2169   2.413   1_556  S
Cd2162     O2168   2.488       .  S
Cd2162     O2167   2.449   1_556  S
Cd2162     O2166   2.470       .  S
Cd2162     O2164   2.459   1_556  S
Cd2162     O2163   2.661       .  S
C2165      O2169   1.266   1_556  A
C2165      C2345   1.459       .  S
O2170      C2173   1.271       .  A
C2171      O2176   1.272       .  A
C2171      C2198   1.477       .  S
O2172      C2178   1.267       .  A
O2172     Cd2175   2.439       .  S
C2173      C2349   1.476       .  S
C2174      O2179   1.271       .  A
C2174      C2334   1.475       .  S
Cd2175     O2182   2.446       .  S
Cd2175     O2181   2.417       .  S
Cd2175     O2180   2.468       .  S
Cd2175     O2179   2.459       .  S
C2178      O2182   1.264       .  A
C2178      C2337   1.468       .  S
C2183      C2184   1.407       .  A
C2183      C2188   1.421       .  A
C2184      C2185   1.407       .  A
C2184      H2203   1.082       .  S
C2185      C2208   1.484   1_565  S
C2185      C2186   1.413       .  A
C2186      C2187   1.421       .  A
C2186      C2193   1.408   1_565  A
C2187      C2188   1.426       .  A
C2188      C2189   1.407       .  A
C2189      H2199   1.083       .  S
C2190      C2191   1.403       .  A
C2190      H2200   1.083       .  S
C2191      C2192   1.425       .  A
C2191      C2198   1.412       .  A
C2192      C2195   1.425       .  A
C2193      H2201   1.083       .  S
C2194      C2195   1.403   1_545  A
C2194      H2202   1.083       .  S
C2195      C2196   1.414       .  A
C2196      C2219   1.481   1_565  S
C2196      C2197   1.396       .  A
C2197      C2198   1.396       .  A
C2197      H2204   1.085       .  S
O2205      C2208   1.271       .  A
O2205     Cd2210   2.522       .  S
C2206      O2215   1.268       .  A
C2206      O2211   1.265       .  A
C2206      C2329   1.474       .  S
C2208      O2216   1.261       .  A
C2209      O2214   1.266       .  A
C2209      O2212   1.265       .  A
C2209      C2325   1.472       .  S
Cd2210     O2217   2.475       .  S
Cd2210     O2216   2.441       .  S
Cd2210     O2215   2.452       .  S
Cd2210     O2211   2.457       .  S
Cd2210     O2214   2.465       .  S
Cd2210     O2212   2.456       .  S
C2213      O2217   1.262       .  A
O2218      C2221   1.273       .  A
O2218     Cd2223   2.487       .  S
C2219      O2228   1.268       .  A
O2220      C2226   1.248       .  S
O2220     Cd2223   2.577       .  S
C2221      O2229   1.263       .  A
C2221      C2330   1.471       .  S
C2222      O2227   1.262       .  A
C2222      O2225   1.263       .  A
C2222      C2322   1.466       .  S
Cd2223     O2230   2.387       .  S
Cd2223     O2229   2.423       .  S
Cd2223     O2228   2.531       .  S
Cd2223     O2227   2.457       .  S
Cd2223     O2225   2.454       .  S
C2226      O2230   1.266       .  A
C2226      C2338   1.477   1_545  S
O2231      C2234   1.268       .  A
O2231     Cd2236   2.496       .  S
C2232      O2237   1.270       .  A
C2232      C2317   1.470       .  S
O2233      C2239   1.266       .  A
C2234      C2259   1.480       .  S
C2235      O2240   1.269       .  A
Cd2236     O2237   2.455       .  S
Cd2236     O2238   2.427       .  S
C2239      O2243   1.265       .  A
C2239      C2313   1.471       .  S
O2244      C2247   1.270       .  A
O2244     Cd2249   2.510       .  S
C2245      O2254   1.267       .  A
C2245      O2250   1.271       .  A
C2245      C2318   1.472       .  S
O2246      C2252   1.268       .  A
O2246     Cd2249   2.469       .  S
C2247      O2255   1.264       .  A
C2247      C2270   1.482       .  S
C2248      O2253   1.268       .  A
C2248      O2251   1.267       .  A
C2248      C2333   1.474       .  S
Cd2249     O2256   2.413       .  S
Cd2249     O2255   2.451       .  S
Cd2249     O2254   2.419       .  S
Cd2249     O2250   2.463       .  S
Cd2249     O2253   2.458       .  S
Cd2249     O2251   2.443       .  S
C2252      O2256   1.263       .  A
C2252      C2309   1.463       .  S
C2257      C2280   1.481       .  S
C2257      C2258   1.401       .  A
C2257      C2262   1.413       .  A
C2258      C2259   1.401       .  A
C2258      H2277   1.084       .  S
C2259      C2260   1.411       .  A
C2260      C2261   1.423       .  A
C2260      C2267   1.404       .  A
C2261      C2262   1.423       .  A
C2261      C2266   1.420       .  A
C2262      C2263   1.405       .  A
C2263      C2264   1.396       .  A
C2263      H2273   1.083       .  S
C2264      C2265   1.405       .  A
C2264      H2274   1.083       .  S
C2265      C2266   1.423       .  A
C2265      C2272   1.413       .  A
C2266      C2269   1.423       .  A
C2267      C2268   1.394       .  A
C2267      H2275   1.083       .  S
C2268      C2269   1.405       .  A
C2268      H2276   1.083       .  S
C2269      C2270   1.412       .  A
C2270      C2271   1.401       .  A
C2271      C2272   1.402       .  A
C2271      H2278   1.084       .  S
C2272      C2295   1.482       .  S
O2279      C2282   1.272       .  A
C2280      O2285   1.270       .  A
O2281      C2287   1.269       .  A
O2281     Cd2284   2.477       .  S
C2282      C2305   1.469       .  S
C2283      O2288   1.270       .  A
C2283      C2326   1.475       .  S
Cd2284     O2291   2.405       .  S
Cd2284     O2290   2.413       .  S
Cd2284     O2289   2.465       .  S
Cd2284     O2288   2.468       .  S
C2287      O2291   1.262       .  A
C2287      C2314   1.464       .  S
C2293      O2302   1.267       .  A
C2293      C2306   1.467       .  S
O2294      C2300   1.270       .  A
O2294     Cd2297   2.480       .  S
C2295      O2303   1.264       .  A
C2296      O2301   1.264       .  A
C2296      O2299   1.264       .  A
C2296      C2310   1.468       .  S
Cd2297     O2304   2.396       .  S
Cd2297     O2303   2.477       .  S
Cd2297     O2302   2.433       .  S
Cd2297     O2301   2.483       .  S
Cd2297     O2299   2.412       .  S
C2300      O2304   1.265       .  A
C2300      C2321   1.471       .  S
C2305      H2307   1.079       .  S
C2309      H2311   1.088       .  S
C2309      C2310   1.339       .  D
C2310      H2312   1.085       .  S
C2313      H2315   1.083       .  S
C2313      C2314   1.339       .  D
C2314      H2316   1.088       .  S
C2317      H2319   1.079       .  S
C2318      H2320   1.080   1_556  S
C2321      H2323   1.084       .  S
C2321      C2322   1.347       .  D
C2322      H2324   1.086       .  S
C2325      H2327   1.084       .  S
C2325      C2326   1.346       .  D
C2326      H2328   1.084       .  S
C2329      H2331   1.086       .  S
C2329      C2330   1.338       .  D
C2330      H2332   1.087       .  S
C2333      H2335   1.085       .  S
C2333      C2334   1.347       .  D
C2334      H2336   1.086       .  S
C2337      H2339   1.083       .  S
C2337      C2338   1.346       .  D
C2341      H2343   1.086       .  S
C2341      C2342   1.348   1_556  D
C2342      H2344   1.086       .  S
C2345      H2347   1.084       .  S
C2345      C2346   1.339   1_556  D
C2346      H2348   1.087       .  S
C2349      H2351   1.084       .  S
C2349      C2350   1.345   1_556  D
