geometry optimzed in LAMMPS
_audit_creation_date              2020-11-30 
_audit_creation_method            'lammps2cif' 
_symmetry_space_group_name_H-M    'P1' 
_symmetry_Int_Tables_number       1 
_symmetry_cell_setting            triclinic 
loop_ 
_symmetry_equiv_pos_as_xyz 
  x,y,z 
_cell_length_a                    25.14130892 
_cell_length_b                    25.21557203418732 
_cell_length_c                    25.447173520110788 
_cell_angle_alpha                 89.84852851211915 
_cell_angle_beta                  90.27071074305142 
_cell_angle_gamma                 90.12523474385547 
loop_ 
_atom_site_label 
_atom_site_type_symbol 
_atom_site_fract_x 
_atom_site_fract_y 
_atom_site_fract_z 
_atom_site_charge 
O1          O  0.44618625  0.39462439  0.54940255    -0.75800
C2          C  0.55940817  0.39249427  0.42450404     0.85300
O3          O  0.59820043  0.49995537  0.60955117    -0.76900
O4          O  0.59023083  0.56085822  0.42967637    -0.78400
O5          O  0.40151709  0.55018570  0.45001846    -0.78200
O6          O  0.38657069  0.45971692  0.54720346    -0.76800
Zn7        Zn  0.51516495  0.42742542  0.52881647     1.55700
O8          O  0.46579147  0.54327935  0.39024863    -0.78200
Cd9        Cd  0.43225171  0.52240977  0.51968425     1.59700
Cd10       Cd  0.55455776  0.54770297  0.55730253     1.59600
O11         O  0.42533591  0.58289967  0.57356504    -0.78200
O12         O  0.50791927  0.50163788  0.51073580    -1.88700
Cd13       Cd  0.52700369  0.50967027  0.43503618     1.59900
O14         O  0.50754821  0.59755760  0.60394983    -0.78200
O15         O  0.55232998  0.43815566  0.40381146    -0.76800
C16         C  0.59566717  0.44985876  0.61647954     0.85700
C17         C  0.39932231  0.41170184  0.55653541     0.85400
O18         O  0.54634607  0.38287842  0.47166401    -0.75800
C19         C  0.41906868  0.55728419  0.40367929     0.86200
O20         O  0.56482745  0.42076017  0.58913124    -0.75900
C21         C  0.45758561  0.60666902  0.60425699     0.86300
C22         C  0.61610405  0.59115709  0.46064422     0.86600
O23         O  0.60674687  0.59271042  0.51003666    -0.78300
O24         O  0.05072265  0.39645552  0.46201581    -0.75800
C25         C  0.95287393  0.40510381  0.59989462     0.85300
O26         O  0.91349184  0.51608124  0.40679016    -0.76900
O27         O  0.92700817  0.57310258  0.58932676    -0.78400
O28         O  0.12033958  0.53918763  0.56128455    -0.78200
O29         O  0.11725428  0.45458874  0.45947359    -0.76800
Zn30       Zn  0.98708393  0.43512738  0.48916609     1.55700
O31         O  0.05446874  0.54915268  0.61885756    -0.78200
Cd32       Cd  0.08092412  0.51974519  0.49290184     1.59700
Cd33       Cd  0.95998596  0.55924980  0.46058352     1.59600
O34         O  0.09119161  0.58236471  0.44203288    -0.78200
O35         O  0.00335174  0.50819359  0.50505349    -1.88700
Cd36       Cd  0.98816696  0.51956499  0.58071653     1.59900
O37         O  0.01036250  0.60898012  0.41683634    -0.78200
O38         O  0.96559697  0.45040209  0.61793899    -0.76800
C39         C  0.91120136  0.46596415  0.39990023     0.85700
C40         C  0.09830697  0.40866126  0.45037690     0.85400
O41         O  0.95710884  0.39419680  0.55119297    -0.75800
C42         C  0.10341719  0.55260191  0.60634125     0.86200
O43         O  0.93629474  0.43369700  0.42943157    -0.75900
C44         C  0.06101175  0.61268240  0.41508872     0.86300
C45         C  0.90287154  0.60505497  0.55859328     0.86600
O46         O  0.91167915  0.60638299  0.50912865    -0.78300
O47         O  0.43649076  0.62916731  0.98512810    -0.75800
C48         C  0.54781133  0.61136739  0.12109400     0.85300
O49         O  0.58895175  0.53715448  0.92150189    -0.76900
O50         O  0.58141541  0.44622815  0.08813274    -0.78400
O51         O  0.38908352  0.46670970  0.07013438    -0.78200
O52         O  0.38030424  0.56166468  0.97386927    -0.76800
Zn53       Zn  0.50435274  0.59506318  0.01131345     1.55700
O54         O  0.45509674  0.45990120  0.12877643    -0.78200
Cd55       Cd  0.42341334  0.49801020  0.00353671     1.59700
Cd56       Cd  0.54563703  0.48116016  0.96445922     1.59600
O57         O  0.41942491  0.43932666  0.94748132    -0.78200
O58         O  0.49846770  0.51848661  0.01702997    -1.88700
Cd59       Cd  0.51768368  0.49745786  0.09024291     1.59900
O60         O  0.50038676  0.43604758  0.91195854    -0.78200
O61         O  0.54339103  0.56240071  0.13267087    -0.76800
C62         C  0.58970678  0.58749793  0.92650951     0.85700
C63         C  0.39199197  0.61073600  0.96941810     0.85400
O64         O  0.53174673  0.62990274  0.07726864    -0.75800
C65         C  0.40701468  0.45175714  0.11467174     0.86200
O66         O  0.56006490  0.61155935  0.95885723    -0.75900
C67         C  0.45170155  0.42180248  0.91330127     0.86300
C68         C  0.60838206  0.42326852  0.05249818     0.86600
O69         O  0.59906770  0.43047235  0.00359955    -0.78300
O70         O  0.46163317  0.05516464  0.62616173    -0.75800
C71         C  0.55483666  0.90463855  0.62050164     0.85300
O72         O  0.60757189  0.08653401  0.50853235    -0.76900
O73         O  0.57647059  0.91152100  0.45484517    -0.78400
O74         O  0.39167441  0.95187694  0.47118675    -0.78200
O75         O  0.39378086  0.04389691  0.57056879    -0.76800
Zn76       Zn  0.52236273  0.01704780  0.58977255     1.55700
O77         O  0.45027066  0.88590411  0.47970637    -0.78200
Cd78       Cd  0.43034319  0.01651881  0.50376449     1.59700
Cd79       Cd  0.55171923  0.04168087  0.46573994     1.59600
O80         O  0.42291568  0.07712905  0.45006463    -0.78200
O81         O  0.50628381  0.00034077  0.51729782    -1.88700
Cd82       Cd  0.51741255  0.92283186  0.50836473     1.59900
O83         O  0.50417693  0.09048063  0.41750910    -0.78200
O84         O  0.54469835  0.88550934  0.57536566    -0.76800
C85         C  0.61613718  0.08750929  0.55808020     0.85700
C86         C  0.41280872  0.06119778  0.61372167     0.85400
O87         O  0.54530613  0.95288994  0.63147577    -0.75800
C88         C  0.40537835  0.90369001  0.46464736     0.86200
O89         O  0.58624073  0.06318810  0.59039206    -0.75900
C90         C  0.45432179  0.10030868  0.41832291     0.86300
C91         C  0.60196199  0.93986421  0.42216159     0.86600
O92         O  0.59537078  0.98990260  0.41815381    -0.78300
O93         O  0.05618761  0.61100104  0.05583076    -0.75800
C94         C  0.96109039  0.60585078  0.91313618     0.85300
O95         O  0.90660942  0.49956523  0.10148811    -0.76900
O96         O  0.92675938  0.44012887  0.92315514    -0.78400
O97         O  0.11973433  0.46415440  0.95583944    -0.78200
O98         O  0.12072762  0.55084476  0.05721318    -0.76800
Zn99       Zn  0.99088011  0.57599489  0.02577263     1.55700
O100        O  0.05438463  0.45683592  0.89679717    -0.78200
Cd101      Cd  0.08048282  0.48736690  0.02310983     1.59700
Cd102      Cd  0.95587536  0.45451149  0.05248854     1.59600
O103        O  0.08450726  0.42452047  0.07404699    -0.78200
O104        O  0.00375181  0.50257530  0.00959576    -1.88700
Cd105      Cd  0.99003345  0.49067106  0.93353868     1.59900
O106        O  0.00189098  0.40384874  0.09907425    -0.78200
O107        O  0.97191961  0.56011969  0.89533578    -0.76800
C108        C  0.90589431  0.54970922  0.10824566     0.85700
C109        C  0.10352638  0.59720472  0.06722106     0.85400
O110        O  0.96553537  0.61693669  0.96184978    -0.75800
C111        C  0.10277952  0.45093643  0.91051584     0.86200
O112        O  0.93565540  0.58071786  0.08180811    -0.75900
C113        C  0.05208977  0.39664416  0.10089194     0.86300
C114        C  0.90117705  0.40886530  0.95323276     0.86600
O115        O  0.90879655  0.40753628  0.00286222    -0.78300
O116        O  0.04552409  0.05317227  0.39514485    -0.75800
C117        C  0.94750079  0.90867094  0.41320102     0.85300
O118        O  0.90245588  0.10668485  0.50373908    -0.76900
O119        O  0.92958074  0.93340472  0.58599175    -0.78400
O120        O  0.11283577  0.95713241  0.55337384    -0.78200
O121        O  0.11286842  0.04268983  0.45154659    -0.76800
Zn122      Zn  0.98089704  0.02317419  0.43265957     1.55700
O123        O  0.04806714  0.89693518  0.55150298    -0.78200
Cd124      Cd  0.07458189  0.02237333  0.51991485     1.59700
Cd125      Cd  0.95254620  0.06040854  0.55183504     1.59600
O126        O  0.08407399  0.08498063  0.57054868    -0.78200
O127        O  0.99683992  0.01155572  0.50667809    -1.88700
Cd128      Cd  0.98184603  0.93651091  0.52473134     1.59900
O129        O  0.00292819  0.11047467  0.59539584    -0.78200
O130        O  0.95168493  0.89545191  0.46138294    -0.76800
C131        C  0.89373971  0.10554818  0.45420544     0.85700
C132        C  0.09486388  0.05659243  0.40681223     0.85400
O133        O  0.95967746  0.95492167  0.39702404    -0.75800
C134        C  0.09555233  0.91048012  0.56244700     0.86200
O135        O  0.91929384  0.07462021  0.42386590    -0.75900
C136        C  0.05357068  0.11483325  0.59722084     0.86300
C137        C  0.90390268  0.96658057  0.61366997     0.86600
O138        O  0.90630827  0.01649385  0.60524568    -0.78300
O139        O  0.44273581  0.97410097  0.88713451    -0.75800
C140        C  0.54870210  0.12053447  0.90327283     0.85300
O141        O  0.60515190  0.93433590  0.98051683    -0.76900
O142        O  0.56376865  0.09963276  0.07744717    -0.78400
O143        O  0.38858570  0.05624264  0.05192290    -0.78200
O144        O  0.38570562  0.96641420  0.95328900    -0.76800
Zn145      Zn  0.50649206  0.00972041  0.92150909     1.55700
O146        O  0.44110115  0.12648011  0.03780391    -0.78200
Cd147      Cd  0.42815973  0.99450159  0.01668428     1.59700
Cd148      Cd  0.55511843  0.97102767  0.03609774     1.59600
O149        O  0.42979452  0.93227196  0.06856309    -0.78200
O150        O  0.50128678  0.01612080  0.99702071    -1.88700
Cd151      Cd  0.51194825  0.09247687  0.01453662     1.59900
O152        O  0.51539820  0.91500233  0.08494905    -0.78200
O153        O  0.54704601  0.13297283  0.95181433    -0.76800
C154        C  0.60356237  0.93802002  0.93032911     0.85700
C155        C  0.39829278  0.95860866  0.90559969     0.85400
O156        O  0.52793478  0.07780580  0.88617937    -0.75800
C157        C  0.39842350  0.10571661  0.05536091     0.86200
O158        O  0.56788388  0.96430420  0.90653661    -0.75900
C159        C  0.46576541  0.90572496  0.09199474     0.86300
C160        C  0.59852272  0.06881214  0.09747352     0.86600
O161        O  0.60249579  0.02015311  0.08402999    -0.78300
O162        O  0.06292207  0.96523076  0.13157113    -0.75800
C163        C  0.96139942  0.10971833  0.10926500     0.85300
O164        O  0.92925423  0.90888060  0.01742812    -0.76900
O165        O  0.94475523  0.08108455  0.93875866    -0.78400
O166        O  0.13055582  0.06799949  0.97457374    -0.78200
O167        O  0.13304607  0.99004037  0.08428230    -0.76800
Zn168      Zn  0.99948242  0.99662722  0.09232353     1.55700
O169        O  0.06220205  0.12368040  0.96907838    -0.78200
Cd170      Cd  0.09631081  0.00417419  0.01324320     1.59700
Cd171      Cd  0.98004899  0.95638578  0.97182127     1.59600
O172        O  0.11347046  0.93884904  0.96986482    -0.78200
O173        O  0.01754933  0.00884168  0.01939251    -1.88700
Cd174      Cd  0.99871752  0.08210381  0.99895462     1.59900
O175        O  0.03742778  0.90738909  0.93607618    -0.78200
O176        O  0.96686701  0.12237747  0.06112105    -0.76800
C177        C  0.91651115  0.91152649  0.06591168     0.85700
C178        C  0.11313778  0.96772922  0.12452381     0.85400
O179        O  0.97525402  0.06447554  0.12702374    -0.75800
C180        C  0.11040242  0.11192181  0.95992431     0.86200
O181        O  0.93847258  0.94439129  0.09724897    -0.75900
C182        C  0.08808692  0.90580313  0.94168516     0.86300
C183        C  0.92381374  0.04620947  0.90903989     0.86600
O184        O  0.93288919  0.99664179  0.91521834    -0.78300
O185        O  0.79854636  0.64284452  0.20611832    -0.75800
C186        C  0.70297551  0.65679927  0.35555955     0.85300
O187        O  0.65299662  0.76458867  0.17354249    -0.76900
O188        O  0.69691429  0.83220454  0.34277272    -0.78400
O189        O  0.87225307  0.79881402  0.30508024    -0.78200
O190        O  0.86677846  0.69876486  0.21505721    -0.76800
Zn191      Zn  0.73835678  0.68236481  0.24325980     1.55700
O192        O  0.81504713  0.78751094  0.37099460    -0.78200
Cd193      Cd  0.83217651  0.76742220  0.24107853     1.59700
Cd194      Cd  0.71193969  0.80758713  0.21389358     1.59600
O195        O  0.84140441  0.82005844  0.18002460    -0.78200
O196        O  0.75596826  0.75583307  0.25708283    -1.88700
Cd197      Cd  0.74518169  0.76771895  0.33363411     1.59900
O198        O  0.76043157  0.85117395  0.16154670    -0.78200
O199        O  0.71043929  0.70386199  0.37205026    -0.76800
C200        C  0.64359930  0.71474033  0.17383445     0.85700
C201        C  0.84744752  0.65481735  0.19947283     0.85400
O202        O  0.71545344  0.64321038  0.30902560    -0.75800
C203        C  0.85986788  0.80262605  0.35345145     0.86200
O204        O  0.67350927  0.68202244  0.19808387    -0.75900
C205        C  0.81066381  0.85022609  0.15374882     0.86300
C206        C  0.67258200  0.86522026  0.31331771     0.86600
O207        O  0.67388130  0.86199420  0.26327460    -0.78300
O208        O  0.82533762  0.27510618  0.64031389    -0.75800
C209        C  0.71274482  0.14083844  0.66039979     0.85300
O210        O  0.67860931  0.34588718  0.73274125    -0.76900
O211        O  0.68298308  0.17403446  0.82354222    -0.78400
O212        O  0.87681325  0.19055757  0.79813595    -0.78200
O213        O  0.88096347  0.29154549  0.70676605    -0.76800
Zn214      Zn  0.75815373  0.25058636  0.67557925     1.55700
O215        O  0.81121165  0.13172424  0.80916057    -0.78200
Cd216      Cd  0.84072647  0.25849047  0.77019079     1.59700
Cd217      Cd  0.71898167  0.29879422  0.78791195     1.59600
O218        O  0.84545454  0.31235892  0.83087031    -0.78200
O219        O  0.76540716  0.24482270  0.75127007    -1.88700
Cd220      Cd  0.74698760  0.17086446  0.77286365     1.59900
O221        O  0.76453384  0.34827962  0.83575878    -0.78200
O222        O  0.71930072  0.12854333  0.70861069    -0.76800
C223        C  0.67706509  0.34035240  0.68292894     0.85700
C224        C  0.86881559  0.29394115  0.65805462     0.85400
O225        O  0.72815187  0.18513285  0.64188134    -0.75800
C226        C  0.85979347  0.14585537  0.81457143     0.86200
O227        O  0.70447861  0.30563265  0.65939887    -0.75900
C228        C  0.81317248  0.34595607  0.84994030     0.86300
C229        C  0.65455735  0.21045491  0.84387042     0.86600
O230        O  0.66326793  0.25966990  0.83539493    -0.78300
O231        O  0.19155635  0.80122227  0.85915282    -0.75800
C232        C  0.29996114  0.66431934  0.86303235     0.85300
O233        O  0.34287829  0.85411852  0.75427801    -0.76900
O234        O  0.33787467  0.67164813  0.69765344    -0.78400
O235        O  0.14263021  0.69303636  0.71576043    -0.78200
O236        O  0.13223007  0.79687574  0.79429171    -0.76800
Zn237      Zn  0.26119365  0.77439097  0.82912189     1.55700
O238        O  0.21038342  0.63618844  0.71258712    -0.78200
Cd239      Cd  0.17729219  0.76348365  0.73595323     1.59700
Cd240      Cd  0.29912877  0.80058207  0.70861634     1.59600
O241        O  0.17076853  0.81325717  0.67257496    -0.78200
O242        O  0.25343188  0.75491459  0.75580373    -1.88700
Cd243      Cd  0.27258093  0.67879190  0.74636715     1.59900
O244        O  0.25196026  0.84501156  0.65657664    -0.78200
O245        O  0.29215597  0.64469865  0.81759065    -0.76800
C246        C  0.34081785  0.86328102  0.80353245     0.85700
C247        C  0.14492503  0.80966333  0.84089239     0.85400
O248        O  0.29079973  0.71307379  0.87300497    -0.75800
C249        C  0.16151772  0.64766093  0.70524359     0.86200
O250        O  0.31164060  0.83586748  0.83419897    -0.75900
C251        C  0.20206504  0.84356196  0.64713326     0.86300
C252        C  0.36177913  0.70353756  0.66673610     0.86600
O253        O  0.35061158  0.75291700  0.66463224    -0.78300
O254        O  0.20892757  0.21152880  0.64958153    -0.75800
C255        C  0.30222524  0.35516532  0.65358476     0.85300
O256        O  0.35582674  0.16605339  0.76364834    -0.76900
O257        O  0.33814082  0.34896270  0.81629236    -0.78400
O258        O  0.14359700  0.31323713  0.79326139    -0.78200
O259        O  0.14430074  0.20918925  0.70890899    -0.76800
Zn260      Zn  0.27362830  0.24202898  0.68510059     1.55700
O261        O  0.20915781  0.37212883  0.80355965    -0.78200
Cd262      Cd  0.18340146  0.24528761  0.77170885     1.59700
Cd263      Cd  0.30767577  0.21797214  0.80637404     1.59600
O264        O  0.17888809  0.19627521  0.83610626    -0.78200
O265        O  0.26004346  0.25964778  0.75728862    -1.88700
Cd266      Cd  0.27330524  0.33665921  0.76781095     1.59900
O267        O  0.26183932  0.17421759  0.85913282    -0.78200
O268        O  0.28893456  0.37431559  0.69777642    -0.76800
C269        C  0.35666518  0.15793373  0.71417632     0.85700
C270        C  0.16181098  0.19925148  0.66306484     0.85400
O271        O  0.29994474  0.30555560  0.64411989    -0.75800
C272        C  0.16072467  0.35814866  0.80862631     0.86200
O273        O  0.32790240  0.18459674  0.68242255    -0.75900
C274        C  0.21164280  0.17183441  0.86588009     0.86300
C275        C  0.36350482  0.31909812  0.84808497     0.86600
O276        O  0.35533724  0.26919843  0.85065312    -0.78300
O277        O  0.22148635  0.86984668  0.21364146    -0.75800
C278        C  0.31983205  0.84767317  0.35513161     0.85300
O279        O  0.36326140  0.75772547  0.15669402    -0.76900
O280        O  0.33737777  0.67681947  0.32930236    -0.78400
O281        O  0.15305504  0.70734874  0.30384795    -0.78200
O282        O  0.15419267  0.81250774  0.22068714    -0.76800
Zn283      Zn  0.28650815  0.83010566  0.24093053     1.55700
O284        O  0.21785814  0.70633194  0.36355509    -0.78200
Cd285      Cd  0.19189216  0.74268066  0.24016648     1.59700
Cd286      Cd  0.31425298  0.70913461  0.20351550     1.59600
O287        O  0.18275472  0.69199142  0.17785136    -0.78200
O288        O  0.26969207  0.75530601  0.25144712    -1.88700
Cd289      Cd  0.28340909  0.73647903  0.32585297     1.59900
O290        O  0.26367297  0.66434956  0.15453377    -0.78200
O291        O  0.31240312  0.79948303  0.36814982    -0.76800
C292        C  0.37174966  0.80775722  0.15740653     0.85700
C293        C  0.17215693  0.85832742  0.20927827     0.85400
O294        O  0.31011815  0.86452459  0.30886021    -0.75800
C295        C  0.17041908  0.69582490  0.34960100     0.86200
O296        O  0.34675052  0.83851461  0.18839292    -0.75900
C297        C  0.21304642  0.66369385  0.14935703     0.86300
C298        C  0.36404256  0.64881158  0.29741156     0.86600
O299        O  0.36176297  0.65619699  0.24773435    -0.78300
O300        O  0.81214299  0.37864752  0.29020719    -0.75800
C301        C  0.71040565  0.36016698  0.14438527     0.85300
O302        O  0.65540193  0.27913916  0.33174745    -0.76900
O303        O  0.69671137  0.18482075  0.16523534    -0.78400
O304        O  0.87343914  0.21516454  0.20937544    -0.78200
O305        O  0.87153461  0.31397603  0.29874135    -0.76800
Zn306      Zn  0.75045178  0.34137849  0.25487683     1.55700
O307        O  0.81956229  0.22574924  0.13996403    -0.78200
Cd308      Cd  0.83201897  0.24835020  0.27062978     1.59700
Cd309      Cd  0.70585233  0.22433944  0.29355877     1.59600
O310        O  0.83243804  0.19540661  0.33192425    -0.78200
O311        O  0.75821009  0.26550222  0.24872588    -1.88700
Cd312      Cd  0.74807572  0.24831903  0.17278793     1.59900
O313        O  0.74752895  0.17507463  0.34803584    -0.78200
O314        O  0.71307992  0.31136907  0.13155346    -0.76800
C315        C  0.65481546  0.32970717  0.32675871     0.85700
C316        C  0.85716603  0.36173879  0.30583573     0.85400
O317        O  0.72926348  0.37691443  0.18771236    -0.75800
C318        C  0.86339237  0.21068721  0.16044476     0.86200
O319        O  0.68866175  0.35432190  0.29919821    -0.75900
C320        C  0.79739319  0.16985590  0.35755746     0.86300
C321        C  0.66244018  0.16366248  0.19554267     0.86600
O322        O  0.65875671  0.17609242  0.24412672    -0.78300
O323        O  0.20384959  0.13778304  0.30237728    -0.75800
C324        C  0.30561380  0.15741571  0.16030104     0.85300
O325        O  0.34930683  0.24636269  0.35616021    -0.76900
O326        O  0.32169472  0.32968653  0.18430871    -0.78400
O327        O  0.13991861  0.29929991  0.21052655    -0.78200
O328        O  0.13804773  0.19647272  0.29448727    -0.76800
Zn329      Zn  0.26926345  0.17495594  0.27297481     1.55700
O330        O  0.20272787  0.29508761  0.14939038    -0.78200
Cd331      Cd  0.17806469  0.26443409  0.27427359     1.59700
Cd332      Cd  0.30107927  0.29529831  0.30978348     1.59600
O333        O  0.17110950  0.31502249  0.33666179    -0.78200
O334        O  0.25499490  0.24995078  0.26239996    -1.88700
Cd335      Cd  0.26893706  0.26849523  0.18830740     1.59900
O336        O  0.25321984  0.34027765  0.35955874    -0.78200
O337        O  0.29996040  0.20596639  0.14791680    -0.76800
C338        C  0.35598782  0.19618571  0.35570255     0.85700
C339        C  0.15507475  0.15081999  0.30739027     0.85400
O340        O  0.29265331  0.13963771  0.20540005    -0.75800
C341        C  0.15614891  0.30752834  0.16388752     0.86200
O342        O  0.32947634  0.16586218  0.32524944    -0.75900
C343        C  0.20284768  0.34195135  0.36529916     0.86300
C344        C  0.34963155  0.35651313  0.21649423     0.86600
O345        O  0.34865176  0.34771979  0.26592667    -0.78300
O346        O  0.82367077  0.72002268  0.87341288    -0.75800
C347        C  0.70928984  0.84733094  0.87199369     0.85300
O348        O  0.67536318  0.65526576  0.77060166    -0.76900
O349        O  0.67665527  0.83694640  0.70793964    -0.78400
O350        O  0.86932681  0.81839610  0.72060643    -0.78200
O351        O  0.88176009  0.71634815  0.80771011    -0.76800
Zn352      Zn  0.75485711  0.74149936  0.84073875     1.55700
O353        O  0.80313074  0.87736049  0.72119552    -0.78200
Cd354      Cd  0.83734179  0.74780337  0.74596801     1.59700
Cd355      Cd  0.71537549  0.70935288  0.72261745     1.59600
O356        O  0.84329752  0.69647431  0.68293883    -0.78200
O357        O  0.76183962  0.75770933  0.76669993    -1.88700
Cd358      Cd  0.74199198  0.83366115  0.75647231     1.59900
O359        O  0.76105247  0.66551804  0.66975388    -0.78200
O360        O  0.71619476  0.86709218  0.82627170    -0.76800
C361        C  0.67615388  0.65099473  0.82052222     0.85700
C362        C  0.86951212  0.70911418  0.85580183     0.85400
O363        O  0.72371598  0.80045432  0.88318728    -0.75800
C364        C  0.85085015  0.86425088  0.71024125     0.86200
O365        O  0.70489662  0.68099924  0.84910559    -0.75900
C366        C  0.81054743  0.66642118  0.65884799     0.86300
C367        C  0.64878114  0.80395038  0.68173429     0.86600
O368        O  0.65879091  0.75430365  0.68156506    -0.78300
C369        C  0.93506242  0.14695269  0.14501367    -0.13700
C370        C  0.90201710  0.18439868  0.12626459    -0.28900
H371        H  0.93657086  0.13859637  0.18692452     0.15300
H372        H  0.89742036  0.18983063  0.08409740     0.15900
C373        C  0.14988996  0.94043092  0.16090062    -0.13700
C374        C  0.13412753  0.89742593  0.18793227    -0.28900
H375        H  0.19203458  0.94960975  0.15797380     0.15300
H376        H  0.09228944  0.88642225  0.18788496     0.15900
C377        C  0.18990084  0.13907818  0.90886499    -0.13700
C378        C  0.14122638  0.14947535  0.92785637    -0.28900
H379        H  0.21230825  0.10494072  0.92264890     0.15300
H380        H  0.12039574  0.18486401  0.91460519     0.15900
C381        C  0.12091663  0.86580793  0.91515087    -0.13700
C382        C  0.10533759  0.83827055  0.87286629    -0.28900
H383        H  0.16220057  0.86344096  0.92788094     0.15300
H384        H  0.06497730  0.84234297  0.85795409     0.15900
C385        C  0.88786006  0.06562224  0.86680846    -0.13700
C386        C  0.89812595  0.11311822  0.84455493    -0.28900
H387        H  0.85181972  0.04377986  0.85734106     0.15300
H388        H  0.93595818  0.13224030  0.85339062     0.15900
C389        C  0.83560681  0.88716785  0.11576148    -0.13700
C390        C  0.87873549  0.87262224  0.08807280    -0.28900
H391        H  0.82217789  0.92807967  0.11481981     0.15300
H392        H  0.89027436  0.83114089  0.08691423     0.15900
C393        C  0.63773821  0.09190116  0.13434674    -0.13700
C394        C  0.62353237  0.12659111  0.17188792    -0.28900
H395        H  0.67958828  0.08435595  0.12705014     0.15300
H396        H  0.58180462  0.13162674  0.18156413     0.15900
C397        C  0.36114377  0.14013846  0.08338638    -0.13700
C398        C  0.33080564  0.12127082  0.12265046    -0.28900
H399        H  0.36471463  0.18266185  0.07718511     0.15300
H400        H  0.33037631  0.07905768  0.13141893     0.15900
C401        C  0.40722576  0.83202984  0.11772901    -0.13700
C402        C  0.44753560  0.86517258  0.13021870    -0.28900
H403        H  0.39505656  0.82826326  0.07687380     0.15300
H404        H  0.46168039  0.86773194  0.17052609     0.15900
C405        C  0.67967264  0.87751398  0.91195772    -0.13700
C406        C  0.64300609  0.91256070  0.89619258    -0.28900
H407        H  0.68239943  0.86594713  0.95303431     0.15300
H408        H  0.63898460  0.92098890  0.85440111     0.15900
C409        C  0.58023179  0.15208157  0.86552331    -0.13700
C410        C  0.61055937  0.19403430  0.87873791    -0.28900
H411        H  0.58464449  0.13529917  0.82644350     0.15300
H412        H  0.60619401  0.21317408  0.91664627     0.15900
C413        C  0.36116008  0.92698455  0.87339522    -0.13700
C414        C  0.37382041  0.90603471  0.82650633    -0.28900
H415        H  0.32414328  0.91520248  0.89207810     0.15300
H416        H  0.41000345  0.91799339  0.80650568     0.15900
C417        C  0.12929954  0.16964036  0.62464121    -0.13700
C418        C  0.07858937  0.15440683  0.63247623    -0.28900
H419        H  0.14972766  0.15653474  0.58942960     0.15300
H420        H  0.05657437  0.16871594  0.66619509     0.15900
C421        C  0.11699799  0.11409734  0.33199388    -0.13700
C422        C  0.13276539  0.07981443  0.36925382    -0.28900
H423        H  0.07483807  0.12192365  0.32642441     0.15300
H424        H  0.17494351  0.07535562  0.37776304     0.15900
C425        C  0.87053507  0.94498622  0.65643650    -0.13700
C426        C  0.88618395  0.90016841  0.68078548    -0.28900
H427        H  0.83208740  0.96265572  0.66449487     0.15300
H428        H  0.92572988  0.88485360  0.67266140     0.15900
C429        C  0.85733059  0.14482092  0.43004670    -0.13700
C430        C  0.81707023  0.13144147  0.39736651    -0.28900
H431        H  0.86857945  0.18628050  0.43376981     0.15300
H432        H  0.80371498  0.09052588  0.39495967     0.15900
C433        C  0.17846373  0.87969938  0.60747976    -0.13700
C434        C  0.12877086  0.87079460  0.58962741    -0.28900
H435        H  0.19977927  0.91555207  0.59655615     0.15300
H436        H  0.10898717  0.83382010  0.59988013     0.15900
C437        C  0.89621878  0.82898466  0.39039054    -0.13700
C438        C  0.92539957  0.87080134  0.37497224    -0.28900
H439        H  0.89136115  0.82062679  0.43201984     0.15300
H440        H  0.92663765  0.88166157  0.33361423     0.15900
C441        C  0.13675247  0.63597952  0.09574896    -0.13700
C442        C  0.18759479  0.62783119  0.11059831    -0.28900
H443        H  0.11667538  0.67185693  0.10842369     0.15300
H444        H  0.20923225  0.59335053  0.09684775     0.15900
C445        C  0.12288678  0.33578724  0.12545654    -0.13700
C446        C  0.07464142  0.35580038  0.13601239    -0.28900
H447        H  0.14169859  0.34543420  0.08821369     0.15300
H448        H  0.05388570  0.34533175  0.17192607     0.15900
C449        C  0.12344228  0.39333648  0.83579631    -0.13700
C450        C  0.14031179  0.42596851  0.87406307    -0.28900
H451        H  0.08110748  0.38676848  0.82977643     0.15300
H452        H  0.18253891  0.42901638  0.88298504     0.15900
C453        C  0.88351968  0.62007328  0.16977740    -0.13700
C454        C  0.86979320  0.57373119  0.14732346    -0.28900
H455        H  0.92293044  0.63619561  0.16221837     0.15300
H456        H  0.83174913  0.55513466  0.15566990     0.15900
C457        C  0.93961743  0.64526704  0.87601530    -0.13700
C458        C  0.90719052  0.68390385  0.89232599    -0.28900
H459        H  0.94262864  0.63675468  0.83426905     0.15300
H460        H  0.90049232  0.68932479  0.93414361     0.15900
C461        C  0.83434174  0.38537628  0.88696499    -0.13700
C462        C  0.86422567  0.37098837  0.92848096    -0.28900
H463        H  0.83027909  0.42701629  0.87662103     0.15300
H464        H  0.86585087  0.32970162  0.94072469     0.15900
C465        C  0.39241590  0.17155098  0.39413668    -0.13700
C466        C  0.43066679  0.13737053  0.37978658    -0.28900
H467        H  0.38433676  0.17790777  0.43555442     0.15300
H468        H  0.44109766  0.13315753  0.33862974     0.15900
C469        C  0.64244861  0.91232894  0.39144781    -0.13700
C470        C  0.64069703  0.90718983  0.33889550    -0.28900
H471        H  0.66910215  0.88736272  0.41433096     0.15300
H472        H  0.61271082  0.93030528  0.31566705     0.15900
C473        C  0.66123029  0.11797788  0.58005238    -0.13700
C474        C  0.68180027  0.10420457  0.62721410    -0.28900
H475        H  0.67425089  0.15377407  0.56001782     0.15300
H476        H  0.66888925  0.06747452  0.64572064     0.15900
C477        C  0.60491998  0.82501081  0.64906676    -0.13700
C478        C  0.58336280  0.87256598  0.65998586    -0.28900
H479        H  0.59407088  0.80396453  0.61338574     0.15300
H480        H  0.59385510  0.89227397  0.69656457     0.15900
C481        C  0.39162034  0.11680877  0.69183854    -0.13700
C482        C  0.37691699  0.09239450  0.64709008    -0.28900
H483        H  0.42984580  0.10868461  0.71017765     0.15300
H484        H  0.33740625  0.09980597  0.63111527     0.15900
C485        C  0.37023763  0.86756848  0.43554888    -0.13700
C486        C  0.34251930  0.88486639  0.39366296    -0.28900
H487        H  0.37434414  0.82526567  0.44276451     0.15300
H488        H  0.34242550  0.92686712  0.38388080     0.15900
C489        C  0.35527593  0.64705796  0.94164846    -0.13700
C490        C  0.32272458  0.62901562  0.90361186    -0.28900
H491        H  0.36176865  0.68947651  0.94575696     0.15300
H492        H  0.31996542  0.58657282  0.89665454     0.15900
C493        C  0.38417802  0.39839422  0.19433852    -0.13700
C494        C  0.37070028  0.42076928  0.14804741    -0.28900
H495        H  0.42146156  0.40821249  0.21375494     0.15300
H496        H  0.33206795  0.41163548  0.13084596     0.15900
C497        C  0.57737053  0.64541623  0.15800120    -0.13700
C498        C  0.59784309  0.69291789  0.14431517    -0.28900
H499        H  0.59030517  0.62687821  0.19450909     0.15300
H500        H  0.58492115  0.71288927  0.10862007     0.15900
C501        C  0.65112372  0.38672895  0.06963627    -0.13700
C502        C  0.68024105  0.39886666  0.11243323    -0.28900
H503        H  0.65541438  0.34865182  0.05029727     0.15300
H504        H  0.67594072  0.43819420  0.12937538     0.15900
C505        C  0.62701376  0.62055237  0.89681750    -0.13700
C506        C  0.64168730  0.61174342  0.84695388    -0.28900
H507        H  0.63976524  0.65681603  0.91624761     0.15300
H508        H  0.62571992  0.57826633  0.82516994     0.15900
C509        C  0.43041067  0.38607457  0.87270837    -0.13700
C510        C  0.40026173  0.34410640  0.88585873    -0.28900
H511        H  0.43484474  0.39747582  0.83175643     0.15300
H512        H  0.39864918  0.33102416  0.92655317     0.15900
C513        C  0.12977507  0.36891280  0.42210822    -0.13700
C514        C  0.17962210  0.37737583  0.40507965    -0.28900
H515        H  0.10897715  0.33289206  0.41054917     0.15300
H516        H  0.20191503  0.41209032  0.41763264     0.15900
C517        C  0.86627560  0.64365301  0.58262726    -0.13700
C518        C  0.83194271  0.62862183  0.62024837    -0.28900
H519        H  0.87201821  0.68547305  0.57391933     0.15300
H520        H  0.82412746  0.58672586  0.62678472     0.15900
C521        C  0.12515904  0.60918819  0.68111550    -0.13700
C522        C  0.14167261  0.57615514  0.64344517    -0.28900
H523        H  0.08281188  0.61515532  0.68715811     0.15300
H524        H  0.18378584  0.57356306  0.63430429     0.15900
C525        C  0.90333436  0.32299584  0.62110519    -0.13700
C526        C  0.93102226  0.36570614  0.63701615    -0.28900
H527        H  0.89872631  0.31507448  0.57937128     0.15300
H528        H  0.93215270  0.37564372  0.67855942     0.15900
C529        C  0.13738545  0.66636590  0.38762543    -0.13700
C530        C  0.08637678  0.65200721  0.37970223    -0.28900
H531        H  0.15777970  0.65256894  0.42285979     0.15300
H532        H  0.06433601  0.66689309  0.34596750     0.15900
C533        C  0.89297751  0.39586229  0.33670663    -0.13700
C534        C  0.87903354  0.44320973  0.35676432    -0.28900
H535        H  0.93037160  0.37797593  0.34900146     0.15300
H536        H  0.84279070  0.46300209  0.34423480     0.15900
C537        C  0.38368105  0.58587089  0.36716454    -0.13700
C538        C  0.39812102  0.60696415  0.32062961    -0.28900
H539        H  0.34475032  0.59568451  0.38287482     0.15300
H540        H  0.43584292  0.59705032  0.30256328     0.15900
C541        C  0.63022267  0.42341538  0.65579468    -0.13700
C542        C  0.64086590  0.37156886  0.64987464    -0.28900
H543        H  0.64890997  0.44619834  0.68701453     0.15300
H544        H  0.62537266  0.35085847  0.61561642     0.15900
C545        C  0.32456945  0.39173482  0.61433271    -0.13700
C546        C  0.36073008  0.37479966  0.57972186    -0.28900
H547        H  0.31936518  0.43403715  0.62061874     0.15300
H548        H  0.36930556  0.33266549  0.57683700     0.15900
C549        C  0.67545938  0.61716881  0.38861123    -0.13700
C550        C  0.65638966  0.62698740  0.43710624    -0.28900
H551        H  0.66572384  0.57974066  0.36971361     0.15300
H552        H  0.66690491  0.66333671  0.45750766     0.15900
C553        C  0.43484554  0.64296221  0.64351498    -0.13700
C554        C  0.40044412  0.68123034  0.62936360    -0.28900
H555        H  0.44098828  0.63365866  0.68480891     0.15300
H556        H  0.39655480  0.69232372  0.58823512     0.15900
C557        C  0.58697196  0.35052862  0.39467705    -0.13700
C558        C  0.61506451  0.36363119  0.35209549    -0.28900
H559        H  0.59010694  0.31093397  0.41133584     0.15300
H560        H  0.61356837  0.40432128  0.33786106     0.15900
loop_ 
_geom_bond_atom_site_label_1 
_geom_bond_atom_site_label_2 
_geom_bond_distance 
_geom_bond_site_symmetry_2 
_ccdc_geom_bond_type 
O1           C17   1.269       .  A
O1           Zn7   1.991       .  S
C2           O18   1.268       .  A
C2           O15   1.277       .  A
C2          C557   1.479       .  S
O3           C16   1.276       .  A
O3          Cd10   2.099       .  S
O4           C22   1.274       .  A
O4          Cd13   2.050       .  S
O5           C19   1.273       .  A
O5           Cd9   2.053       .  S
O6           C17   1.275       .  A
O6           Cd9   2.074       .  S
Zn7          O18   2.004       .  S
Zn7          O20   1.981       .  S
Zn7          O12   1.935       .  S
O8           C19   1.276       .  A
O8          Cd13   2.090       .  S
Cd9          O11   2.062       .  S
Cd9          O12   1.989       .  S
Cd10         O14   2.101       .  S
Cd10         O23   2.111       .  S
Cd10         O12   2.029       .  S
O11          C21   1.273       .  A
O12         Cd13   1.997       .  S
Cd13         O15   2.075       .  S
O14          C21   1.278       .  A
C16          O20   1.272       .  A
C16         C541   1.480       .  S
C17         C546   1.468       .  S
C19         C537   1.472       .  S
C21         C553   1.475       .  S
C22          O23   1.281       .  A
C22         C550   1.483       .  S
O24          C40   1.271       .  A
O24         Zn30   2.002   1_455  S
C25          O41   1.275       .  A
C25          O38   1.272       .  A
C25         C526   1.476       .  S
O26          C39   1.277       .  A
O26         Cd33   2.101       .  S
O27          C45   1.274       .  A
O27         Cd36   2.061       .  S
O28          C42   1.272       .  A
O28         Cd32   2.058       .  S
O29          C40   1.273       .  A
O29         Cd32   2.068       .  S
Zn30         O41   2.031       .  S
Zn30         O43   1.981       .  S
Zn30         O35   1.930   1_655  S
O31          C42   1.275       .  A
O31         Cd36   2.064   1_455  S
Cd32         O34   2.056       .  S
Cd32         O35   1.997       .  S
Cd33         O37   2.101   1_655  S
Cd33         O46   2.108       .  S
Cd33         O35   2.028   1_655  S
O34          C44   1.275       .  A
O35         Cd36   1.986   1_455  S
Cd36         O38   2.062       .  S
O37          C44   1.278       .  A
C39          O43   1.273       .  A
C39         C534   1.477       .  S
C40         C513   1.470       .  S
C42         C522   1.470       .  S
C44         C530   1.483       .  S
C45          O46   1.279       .  A
C45         C517   1.477       .  S
O47          C63   1.274       .  A
O47         Zn53   2.022   1_556  S
C48          O64   1.272       .  A
C48          O61   1.273       .  A
C48         C497   1.472       .  S
O49          C62   1.276       .  A
O49         Cd56   2.091       .  S
O50          C68   1.276       .  A
O50         Cd59   2.061       .  S
O51          C65   1.274       .  A
O51         Cd55   2.060       .  S
O52          C63   1.276       .  A
O52         Cd55   2.077   1_556  S
Zn53         O64   2.014       .  S
Zn53         O66   1.982   1_554  S
Zn53         O58   1.941       .  S
O54          C65   1.276       .  A
O54         Cd59   2.083       .  S
Cd55         O57   2.060   1_554  S
Cd55         O58   1.984       .  S
Cd56         O60   2.088       .  S
Cd56         O69   2.102   1_556  S
Cd56         O58   2.027   1_556  S
O57          C67   1.273       .  A
O58         Cd59   1.993       .  S
Cd59         O61   2.065       .  S
O60          C67   1.275       .  A
C62          O66   1.269       .  A
C62         C505   1.465       .  S
C63         C489   1.478       .  S
C65         C494   1.472       .  S
C67         C509   1.471       .  S
C68          O69   1.278       .  A
C68         C501   1.480       .  S
O70          C86   1.276       .  A
O70         Zn76   2.034       .  S
C71          O87   1.273       .  A
C71          O84   1.271       .  A
C71         C478   1.473       .  S
O72          C85   1.278       .  A
O72         Cd79   2.103       .  S
O73          C91   1.270       .  A
O73         Cd82   2.041       .  S
O74          C88   1.275       .  A
O74         Cd78   2.069   1_565  S
O75          C86   1.273       .  A
O75         Cd78   2.058       .  S
Zn76         O87   2.016   1_545  S
Zn76         O89   1.981       .  S
Zn76         O81   1.934       .  S
O77          C88   1.272       .  A
O77         Cd82   2.058       .  S
Cd78         O80   2.056       .  S
Cd78         O81   1.982       .  S
Cd79         O83   2.106       .  S
Cd79         O92   2.098   1_545  S
Cd79         O81   2.028       .  S
O80          C90   1.272       .  A
O81         Cd82   1.989   1_545  S
Cd82         O84   2.061       .  S
O83          C90   1.278       .  A
C85          O89   1.272       .  A
C85         C473   1.477       .  S
C86         C482   1.472       .  S
C88         C485   1.467       .  S
C90         C466   1.477       .  S
C91          O92   1.277       .  A
C91         C469   1.464       .  S
O93         C109   1.273       .  A
O93         Zn99   2.011   1_455  S
C94         O110   1.276       .  A
C94         O107   1.271       .  A
C94         C457   1.471       .  S
O95         C108   1.277       .  A
O95        Cd102   2.099       .  S
O96         C114   1.273       .  A
O96        Cd105   2.053       .  S
O97         C111   1.273       .  A
O97        Cd101   2.067   1_556  S
O98         C109   1.274       .  A
O98        Cd101   2.081       .  S
Zn99        O110   2.025   1_554  S
Zn99        O112   1.999       .  S
Zn99        O104   1.926   1_655  S
O100        C111   1.273       .  A
O100       Cd105   2.060   1_455  S
Cd101       O103   2.047       .  S
Cd101       O104   1.996       .  S
Cd102       O106   2.088   1_655  S
Cd102       O115   2.094       .  S
Cd102       O104   2.027   1_655  S
O103        C113   1.275       .  A
O104       Cd105   1.988   1_454  S
Cd105       O107   2.052       .  S
O106        C113   1.276       .  A
C108        O112   1.274       .  A
C108        C454   1.481       .  S
C109        C441   1.475       .  S
C111        C450   1.470       .  S
C113        C446   1.474       .  S
C114        O115   1.277   1_556  A
C114        C462   1.472       .  S
O116        C132   1.277       .  A
O116       Zn122   2.032   1_455  S
C117        O133   1.273       .  A
C117        O130   1.274       .  A
C117        C438   1.471       .  S
O118        C131   1.279       .  A
O118       Cd125   2.105       .  S
O119        C137   1.274       .  A
O119       Cd128   2.045       .  S
O120        C134   1.274       .  A
O120       Cd124   2.085   1_565  S
O121        C132   1.272       .  A
O121       Cd124   2.055       .  S
Zn122       O133   2.017   1_545  S
Zn122       O135   2.034       .  S
Zn122       O127   1.945       .  S
O123        C134   1.271       .  A
O123       Cd128   2.055   1_455  S
Cd124       O126   2.053       .  S
Cd124       O127   2.000   1_455  S
Cd125       O129   2.101   1_655  S
Cd125       O138   2.104       .  S
Cd125       O127   2.026       .  S
O126        C136   1.275       .  A
O127       Cd128   1.982   1_545  S
Cd128       O130   2.059       .  S
O129        C136   1.278       .  A
C131        O135   1.276       .  A
C131        C429   1.481       .  S
C132        C422   1.472       .  S
C134        C434   1.474       .  S
C136        C418   1.481       .  S
C137        O138   1.278   1_565  A
C137        C425   1.479       .  S
O139        C155   1.274       .  A
O139       Zn145   2.031   1_565  S
C140        O156   1.273       .  A
C140        O153   1.276       .  A
C140        C409   1.478       .  S
O141        C154   1.281       .  A
O141       Cd148   2.114   1_556  S
O142        C160   1.274       .  A
O142       Cd151   2.067       .  S
O143        C157   1.274       .  A
O143       Cd147   2.059   1_545  S
O144        C155   1.272       .  A
O144       Cd147   2.057   1_556  S
Zn145       O156   2.010       .  S
Zn145       O158   1.963   1_545  S
Zn145       O150   1.934       .  S
O146        C157   1.275       .  A
O146       Cd151   2.068       .  S
Cd147       O149   2.048       .  S
Cd147       O150   1.983   1_564  S
Cd148       O152   2.129       .  S
Cd148       O161   2.104   1_565  S
Cd148       O150   2.025   1_564  S
O149        C159   1.272       .  A
O150       Cd151   1.995   1_556  S
Cd151       O153   2.090   1_554  S
O152        C159   1.282       .  A
C154        O158   1.267       .  A
C154        C406   1.471       .  S
C155        C413   1.474       .  S
C157        C397   1.468       .  S
C159        C402   1.483       .  S
C160        O161   1.279       .  A
C160        C393   1.478       .  S
O162        C178   1.277       .  A
O162       Zn168   2.038   1_455  S
C163        O179   1.275       .  A
C163        O176   1.273       .  A
C163        C369   1.470       .  S
O164        C177   1.278       .  A
O164       Cd171   2.101   1_554  S
O165        C183   1.273       .  A
O165       Cd174   2.042       .  S
O166        C180   1.273       .  A
O166       Cd170   2.072   1_556  S
O167        C178   1.271       .  A
O167       Cd170   2.057   1_565  S
Zn168       O179   2.024   1_565  S
Zn168       O181   2.024       .  S
Zn168       O173   1.936   1_665  S
O169        C180   1.271       .  A
O169       Cd174   2.055   1_455  S
Cd170       O172   2.034   1_544  S
Cd170       O173   1.991       .  S
Cd171       O175   2.112   1_655  S
Cd171       O184   2.119       .  S
Cd171       O173   2.024   1_666  S
O172        C182   1.270       .  A
O173       Cd174   1.976   1_454  S
Cd174       O176   2.049   1_556  S
O175        C182   1.282       .  A
C177        O181   1.275       .  A
C177        C390   1.477       .  S
C178        C373   1.475       .  S
C180        C378   1.470       .  S
C182        C381   1.472       .  S
C183        O184   1.280   1_545  A
C183        C385   1.484       .  S
O185        C201   1.277       .  A
O185       Zn191   2.050       .  S
C186        O202   1.274       .  A
C186        O199   1.273       .  A
C186        C549   1.477       .  S
O187        C200   1.278       .  A
O187       Cd194   2.100       .  S
O188        C206   1.274       .  A
O188       Cd197   2.045       .  S
O189        C203   1.275       .  A
O189       Cd193   2.069       .  S
O190        C201   1.273       .  A
O190       Cd193   2.052       .  S
Zn191       O202   2.026       .  S
Zn191       O204   1.990       .  S
Zn191       O196   1.937       .  S
O192        C203   1.271       .  A
O192       Cd197   2.055       .  S
Cd193       O195   2.054       .  S
Cd193       O196   1.982       .  S
Cd194       O198   2.114       .  S
Cd194       O207   2.098       .  S
Cd194       O196   2.031       .  S
O195        C205   1.272       .  A
O196       Cd197   1.992       .  S
Cd197       O199   2.075       .  S
O198        C205   1.280       .  A
C200        O204   1.274       .  A
C200        C498   1.477       .  S
C201        C453   1.475       .  S
C203        C437   1.467       .  S
C205        C389   1.481       .  S
C206        O207   1.277       .  A
C206        C470   1.483       .  S
O208        C224   1.272       .  A
O208       Zn214   2.012       .  S
C209        O225   1.271       .  A
C209        O222   1.275       .  A
C209        C474   1.472       .  S
O210        C223   1.276       .  A
O210       Cd217   2.096       .  S
O211        C229   1.277       .  A
O211       Cd220   2.069       .  S
O212        C226   1.275       .  A
O212       Cd216   2.063       .  S
O213        C224   1.277       .  A
O213       Cd216   2.080       .  S
Zn214       O225   2.006       .  S
Zn214       O227   1.979       .  S
Zn214       O219   1.939       .  S
O215        C226   1.278       .  A
O215       Cd220   2.103       .  S
Cd216       O218   2.062       .  S
Cd216       O219   1.981       .  S
Cd217       O221   2.083       .  S
Cd217       O230   2.097       .  S
Cd217       O219   2.027       .  S
O218        C228   1.273       .  A
O219       Cd220   1.997       .  S
Cd220       O222   2.072       .  S
O221        C228   1.275       .  A
C223        O227   1.269       .  A
C223        C542   1.466       .  S
C224        C525   1.475       .  S
C226        C386   1.478       .  S
C228        C461   1.469       .  S
C229        O230   1.278       .  A
C229        C410   1.479       .  S
O231        C247   1.277       .  A
O231       Zn237   2.032       .  S
C232        O248   1.278       .  A
C232        O245   1.273       .  A
C232        C490   1.476       .  S
O233        C246   1.276       .  A
O233       Cd240   2.091       .  S
O234        C252   1.275       .  A
O234       Cd243   2.070       .  S
O235        C249   1.269       .  A
O235       Cd239   2.043       .  S
O236        C247   1.269       .  A
O236       Cd239   2.055       .  S
Zn237       O248   2.044       .  S
Zn237       O250   2.005       .  S
Zn237       O242   1.939       .  S
O238        C249   1.276       .  A
O238       Cd243   2.079       .  S
Cd239       O241   2.047       .  S
Cd239       O242   1.990       .  S
Cd240       O244   2.097       .  S
Cd240       O253   2.098       .  S
Cd240       O242   2.022       .  S
O241        C251   1.273       .  A
O242       Cd243   1.995       .  S
Cd243       O245   2.062       .  S
O244        C251   1.277       .  A
C246        O250   1.275       .  A
C246        C414   1.479       .  S
C247        C382   1.479       .  S
C249        C521   1.465       .  S
C251        C433   1.481       .  S
C252        O253   1.278       .  A
C252        C554   1.476       .  S
O254        C270   1.272       .  A
O254       Zn260   2.010       .  S
C255        O271   1.276       .  A
C255        O268   1.271       .  A
C255        C545   1.470       .  S
O256        C269   1.276       .  A
O256       Cd263   2.095       .  S
O257        C275   1.274       .  A
O257       Cd266   2.063       .  S
O258        C272   1.273       .  A
O258       Cd262   2.063       .  S
O259        C270   1.275       .  A
O259       Cd262   2.083       .  S
Zn260       O271   2.021       .  S
Zn260       O273   1.993       .  S
Zn260       O265   1.923       .  S
O261        C272   1.274       .  A
O261       Cd266   2.062       .  S
Cd262       O264   2.053       .  S
Cd262       O265   1.995       .  S
Cd263       O267   2.085       .  S
Cd263       O276   2.089       .  S
Cd263       O265   2.021       .  S
O264        C274   1.275       .  A
O265       Cd266   1.988       .  S
Cd266       O268   2.056       .  S
O267        C274   1.276       .  A
C269        O273   1.273       .  A
C269        C481   1.477       .  S
C270        C417   1.475       .  S
C272        C449   1.469       .  S
C274        C377   1.475       .  S
C275        O276   1.276       .  A
C275        C510   1.472       .  S
O277        C293   1.278       .  A
O277       Zn283   2.038       .  S
C278        O294   1.273       .  A
C278        O291   1.272       .  A
C278        C486   1.471       .  S
O279        C292   1.279       .  A
O279       Cd286   2.107       .  S
O280        C298   1.272       .  A
O280       Cd289   2.030       .  S
O281        C295   1.275       .  A
O281       Cd285   2.092       .  S
O282        C293   1.273       .  A
O282       Cd285   2.060       .  S
Zn283       O294   2.022       .  S
Zn283       O296   2.035       .  S
Zn283       O288   1.950       .  S
O284        C295   1.270       .  A
O284       Cd289   2.054       .  S
Cd285       O287   2.051       .  S
Cd285       O288   2.001       .  S
Cd286       O290   2.105       .  S
Cd286       O299   2.112       .  S
Cd286       O288   2.031       .  S
O287        C297   1.275       .  A
O288       Cd289   1.980       .  S
Cd289       O291   2.052       .  S
O290        C297   1.279       .  A
C292        O296   1.276       .  A
C292        C401   1.481       .  S
C293        C374   1.476       .  S
C295        C529   1.476       .  S
C297        C442   1.482       .  S
C298        O299   1.278       .  A
C298        C538   1.481       .  S
O300        C316   1.272       .  A
O300       Zn306   2.020       .  S
C301        O317   1.271       .  A
C301        O314   1.276       .  A
C301        C502   1.477       .  S
O302        C315   1.281       .  A
O302       Cd309   2.119       .  S
O303        C321   1.274       .  A
O303       Cd312   2.064       .  S
O304        C318   1.275       .  A
O304       Cd308   2.059       .  S
O305        C316   1.272       .  A
O305       Cd308   2.057       .  S
Zn306       O317   1.998       .  S
Zn306       O319   1.953       .  S
Zn306       O311   1.930       .  S
O307        C318   1.275       .  A
O307       Cd312   2.067       .  S
Cd308       O310   2.050       .  S
Cd308       O311   1.983       .  S
Cd309       O313   2.132       .  S
Cd309       O322   2.110       .  S
Cd309       O311   2.028       .  S
O310        C320   1.272       .  A
O311       Cd312   1.997       .  S
Cd312       O314   2.096       .  S
O313        C320   1.283       .  A
C315        O319   1.266       .  A
C315        C558   1.469       .  S
C316        C533   1.470       .  S
C318        C370   1.467       .  S
C320        C430   1.484       .  S
C321        O322   1.280       .  A
C321        C394   1.479       .  S
O323        C339   1.277       .  A
O323       Zn329   2.036       .  S
C324        O340   1.275       .  A
C324        O337   1.271       .  A
C324        C398   1.471       .  S
O325        C338   1.277       .  A
O325       Cd332   2.091       .  S
O326        C344   1.272       .  A
O326       Cd335   2.035       .  S
O327        C341   1.273       .  A
O327       Cd331   2.075       .  S
O328        C339   1.271       .  A
O328       Cd331   2.051       .  S
Zn329       O340   2.029       .  S
Zn329       O342   2.024       .  S
Zn329       O334   1.943       .  S
O330        C341   1.270       .  A
O330       Cd335   2.046       .  S
Cd331       O333   2.048       .  S
Cd331       O334   1.994       .  S
Cd332       O336   2.090       .  S
Cd332       O345   2.103       .  S
Cd332       O334   2.023       .  S
O333        C343   1.274       .  A
O334       Cd335   1.974       .  S
Cd335       O337   2.043       .  S
O336        C343   1.276       .  A
C338        O342   1.275       .  A
C338        C465   1.474       .  S
C339        C421   1.471       .  S
C341        C445   1.468       .  S
C343        C514   1.475       .  S
C344        O345   1.277       .  A
C344        C493   1.478       .  S
O346        C362   1.270       .  A
O346       Zn352   1.991       .  S
C347        O363   1.268       .  A
C347        O360   1.277       .  A
C347        C405   1.477       .  S
O348        C361   1.275       .  A
O348       Cd355   2.088       .  S
O349        C367   1.274       .  A
O349       Cd358   2.052       .  S
O350        C364   1.274       .  A
O350       Cd354   2.055       .  S
O351        C362   1.276       .  A
O351       Cd354   2.080       .  S
Zn352       O363   2.003       .  S
Zn352       O365   1.986       .  S
Zn352       O357   1.936       .  S
O353        C364   1.277       .  A
O353       Cd358   2.094       .  S
Cd354       O356   2.070       .  S
Cd354       O357   1.989       .  S
Cd355       O359   2.092       .  S
Cd355       O368   2.094       .  S
Cd355       O357   2.024       .  S
O356        C366   1.274       .  A
O357       Cd358   1.996       .  S
Cd358       O360   2.075       .  S
O359        C366   1.276       .  A
C361        O365   1.272       .  A
C361        C506   1.477       .  S
C362        C458   1.469       .  S
C364        C426   1.473       .  S
C366        C518   1.475       .  S
C367        O368   1.277       .  A
C367        C477   1.477       .  S
C369        C370   1.344       .  D
C369        H371   1.087       .  S
C370        H372   1.087       .  S
C373        C374   1.343       .  D
C373        H375   1.087       .  S
C374        H376   1.087       .  S
C377        C378   1.344       .  D
C377        H379   1.086       .  S
C378        H380   1.088       .  S
C381        C382   1.339       .  D
C381        H383   1.088       .  S
C382        H384   1.087       .  S
C385        C386   1.348       .  D
C385        H387   1.086       .  S
C386        H388   1.088       .  S
C389        C390   1.348       .  D
C389        H391   1.086       .  S
C390        H392   1.087       .  S
C393        C394   1.347       .  D
C393        H395   1.087       .  S
C394        H396   1.087       .  S
C397        C398   1.345       .  D
C397        H399   1.087       .  S
C398        H400   1.087       .  S
C401        C402   1.350       .  D
C401        H403   1.087       .  S
C402        H404   1.086       .  S
C405        C406   1.338       .  D
C405        H407   1.086       .  S
C406        H408   1.088       .  S
C409        C410   1.345       .  D
C409        H411   1.088       .  S
C410        H412   1.086       .  S
C413        C414   1.346       .  D
C413        H415   1.087       .  S
C414        H416   1.086       .  S
C417        C418   1.346       .  D
C417        H419   1.087       .  S
C418        H420   1.086       .  S
C421        C422   1.341       .  D
C421        H423   1.087       .  S
C422        H424   1.087       .  S
C425        C426   1.346       .  D
C425        H427   1.086       .  S
C426        H428   1.088       .  S
C429        C430   1.350       .  D
C429        H431   1.087       .  S
C430        H432   1.086       .  S
C433        C434   1.346       .  D
C433        H435   1.086       .  S
C434        H436   1.087       .  S
C437        C438   1.342       .  D
C437        H439   1.087       .  S
C438        H440   1.087       .  S
C441        C442   1.347       .  D
C441        H443   1.087       .  S
C442        H444   1.086       .  S
C445        C446   1.343       .  D
C445        H447   1.088       .  S
C446        H448   1.086       .  S
C449        C450   1.343       .  D
C449        H451   1.087       .  S
C450        H452   1.087       .  S
C453        C454   1.346       .  D
C453        H455   1.088       .  S
C454        H456   1.086       .  S
C457        C458   1.340       .  D
C457        H459   1.087       .  S
C458        H460   1.087       .  S
C461        C462   1.343       .  D
C461        H463   1.087       .  S
C462        H464   1.087       .  S
C465        C466   1.345       .  D
C465        H467   1.087       .  S
C466        H468   1.086       .  S
C469        C470   1.344       .  D
C469        H471   1.087       .  S
C470        H472   1.086       .  S
C473        C474   1.349       .  D
C473        H475   1.086       .  S
C474        H476   1.088       .  S
C477        C478   1.347       .  D
C477        H479   1.086       .  S
C478        H480   1.087       .  S
C481        C482   1.346       .  D
C481        H483   1.086       .  S
C482        H484   1.088       .  S
C485        C486   1.343       .  D
C485        H487   1.087       .  S
C486        H488   1.087       .  S
C489        C490   1.344       .  D
C489        H491   1.087       .  S
C490        H492   1.087       .  S
C493        C494   1.347       .  D
C493        H495   1.086       .  S
C494        H496   1.088       .  S
C497        C498   1.348       .  D
C497        H499   1.088       .  S
C498        H500   1.086       .  S
C501        C502   1.345       .  D
C501        H503   1.086       .  S
C502        H504   1.088       .  S
C505        C506   1.342       .  D
C505        H507   1.088       .  S
C506        H508   1.086       .  S
C509        C510   1.343       .  D
C509        H511   1.086       .  S
C510        H512   1.087       .  S
C513        C514   1.344       .  D
C513        H515   1.088       .  S
C514        H516   1.086       .  S
C517        C518   1.345       .  D
C517        H519   1.086       .  S
C518        H520   1.087       .  S
C521        C522   1.340       .  D
C521        H523   1.087       .  S
C522        H524   1.087       .  S
C525        C526   1.343       .  D
C525        H527   1.087       .  S
C526        H528   1.087       .  S
C529        C530   1.346       .  D
C529        H531   1.087       .  S
C530        H532   1.086       .  S
C533        C534   1.347       .  D
C533        H535   1.088       .  S
C534        H536   1.086       .  S
C537        C538   1.348       .  D
C537        H539   1.088       .  S
C538        H540   1.086       .  S
C541        C542   1.344       .  D
C541        H543   1.086       .  S
C542        H544   1.088       .  S
C545        C546   1.340       .  D
C545        H547   1.087       .  S
C546        H548   1.087       .  S
C549        C550   1.350       .  D
C549        H551   1.087       .  S
C550        H552   1.086       .  S
C553        C554   1.345       .  D
C553        H555   1.086       .  S
C554        H556   1.087       .  S
C557        C558   1.337       .  D
C557        H559   1.087       .  S
C558        H560   1.088       .  S
