geometry optimzed in LAMMPS
_audit_creation_date              2020-11-30 
_audit_creation_method            'lammps2cif' 
_symmetry_space_group_name_H-M    'P1' 
_symmetry_Int_Tables_number       1 
_symmetry_cell_setting            triclinic 
loop_ 
_symmetry_equiv_pos_as_xyz 
  x,y,z 
_cell_length_a                    56.82865802 
_cell_length_b                    41.82233790411819 
_cell_length_c                    34.76071208116362 
_cell_angle_alpha                 89.89321061073669 
_cell_angle_beta                  89.9186597966176 
_cell_angle_gamma                 89.95991714017379 
loop_ 
_atom_site_label 
_atom_site_type_symbol 
_atom_site_fract_x 
_atom_site_fract_y 
_atom_site_fract_z 
_atom_site_charge 
O1          O  0.46498317  0.43500454  0.42632301    -0.75200
O2          O  0.43625911  0.46374488  0.45649006    -0.54100
C3          C  0.44329446  0.44147486  0.43365830     0.78500
O4          O  0.04181131  0.43678215  0.07297992    -0.59800
O5          O  0.06967137  0.46739242  0.04334815    -0.52800
C6          C  0.06334746  0.44437653  0.06570392     0.70600
O7          O  0.46253475  0.43563496  0.07158857    -0.74300
O8          O  0.43504394  0.46429918  0.03862157    -0.54900
C9          C  0.44112474  0.44241774  0.06268461     0.76600
O10         O  0.04427049  0.43881708  0.42664031    -0.59500
O11         O  0.07059466  0.46670351  0.46284904    -0.52600
C12         C  0.06535128  0.44528009  0.43782559     0.73200
Zr13       Zr  0.50397008  0.45493593  0.44249953     2.54700
O14         O  0.50579706  0.39691249  0.43750250    -0.80100
O15         O  0.00524054  0.45852436  0.37169213    -0.93500
Zr16       Zr  0.50207485  0.45368439  0.05543535     2.64700
O17         O  0.50150074  0.39549001  0.05211559    -0.98400
O18         O  0.00222283  0.45598404  0.12634086    -0.80500
O19         O  0.48043040  0.45290824  0.49883670    -0.83800
O20         O  0.02516963  0.45409072  0.49998014    -2.18600
O21         O  0.04232089  0.06694845  0.42707661    -0.67200
O22         O  0.06994542  0.03870230  0.46033188    -0.51800
C23         C  0.06376350  0.06035361  0.43595740     0.71500
O24         O  0.46083309  0.06586128  0.07153558    -0.60100
O25         O  0.43417066  0.03570681  0.03875045    -0.52100
C26         C  0.43965176  0.05836574  0.06213428     0.73300
O27         O  0.03966022  0.06469221  0.07934732    -0.71500
O28         O  0.06785115  0.03922573  0.04401936    -0.50200
C29         C  0.06119630  0.05946933  0.06962641     0.74700
O30         O  0.46262422  0.06634294  0.42510441    -0.66900
O31         O  0.43520200  0.03618933  0.45625484    -0.54100
C32         C  0.44117558  0.05852562  0.43276449     0.73100
Zr33       Zr  0.00265788  0.05009070  0.44413950     2.77500
O34         O  0.00091192  0.10817877  0.44871782    -0.97600
O35         O  0.00390200  0.05073699  0.37413858    -0.78400
Zr36       Zr  0.00066640  0.04701135  0.05913048     2.70100
O37         O  0.00104664  0.10505998  0.06420819    -0.79700
O38         O  0.99753338  0.04078592  0.12860714    -0.98800
Zr39       Zr  0.45722441  0.00018036  0.99812708     2.21500
Zr40       Zr  0.04720937  0.50248038  0.50192226     2.11100
O41         O  0.02394586  0.04997847  0.00269969    -2.47500
O42         O  0.47878844  0.04876423  0.00021293    -0.79500
O43         O  0.02621754  0.50311178  0.44258080    -0.71700
O44         O  0.47830199  0.00005562  0.05734674    -2.32600
O45         O  0.48039876  0.00176677  0.44087538    -2.28800
O46         O  0.02451731  0.50125940  0.05930120    -0.73400
H47         H  0.03556344  0.43604306  0.00018782     0.78600
H48         H  0.46756408  0.99949746  0.07891622     0.79700
H49         H  0.03447167  0.06930828  0.50281826     0.81900
H50         H  0.47053226  0.00146734  0.41823489     0.79500
H51         H  0.51649353  0.46315143  0.13312950     0.42500
H52         H  0.01028160  0.02568699  0.13542662     0.41500
H53         H  0.49167125  0.11273990  0.03803934     0.41200
H54         H  0.01505724  0.11428422  0.46357615     0.39100
H55         H  0.00095543  0.07332688  0.36705967     0.42200
H56         H  0.50424432  0.43856459  0.36305722     0.37000
H57         H  0.50816109  0.38945109  0.46426319     0.43100
H58         H  0.01321658  0.38859791  0.04001791     0.39600
H59         H  0.00409197  0.11589697  0.42227913     0.44500
H60         H  0.52024584  0.46886044  0.36672552     0.43200
H61         H  0.50469245  0.38830247  0.07876195     0.43300
H62         H  0.00278840  0.06159962  0.13909055     0.43700
O63         O  0.29138388  0.31589516  0.17355148    -0.75200
O64         O  0.31888732  0.28775089  0.20736827    -0.54100
C65         C  0.31272755  0.30946191  0.18309055     0.78500
O66         O  0.21428506  0.31812431  0.32409017    -0.59800
O67         O  0.18629451  0.28857354  0.29346103    -0.52800
C68         C  0.19275130  0.31063953  0.31696472     0.70600
O69         O  0.29365643  0.31529409  0.32292729    -0.74300
O70         O  0.32044585  0.28543031  0.29003278    -0.54900
C71         C  0.31494109  0.30720127  0.31457376     0.76600
O72         O  0.21272394  0.31496178  0.17316100    -0.59500
O73         O  0.18539491  0.28763155  0.20818094    -0.52600
C74         C  0.19138522  0.30852425  0.18279512     0.73200
Zr75       Zr  0.25215340  0.29764170  0.19060749     2.54700
O76         O  0.25085654  0.35561306  0.18527345    -0.80100
O77         O  0.25264381  0.29122980  0.12103514    -0.93500
Zr78       Zr  0.25350606  0.30070575  0.30489616     2.64700
O79         O  0.25530197  0.35875721  0.29938877    -0.98400
O80         O  0.25386489  0.30276503  0.37485275    -0.80500
O81         O  0.27556352  0.29961233  0.24707230    -0.83800
O82         O  0.23014456  0.30024984  0.24842821    -2.18600
O83         O  0.21126783  0.18679239  0.17801597    -0.67200
O84         O  0.18424621  0.21595312  0.21137298    -0.51800
C85         C  0.18993897  0.19371301  0.18748496     0.71500
O86         O  0.29154995  0.18737856  0.32445937    -0.60100
O87         O  0.31899941  0.21455707  0.28940846    -0.50700
C88         C  0.31288236  0.19338053  0.31437488     0.73300
O89         O  0.21260528  0.18897332  0.32518429    -0.71500
O90         O  0.18501979  0.21770731  0.29241245    -0.50200
C91         C  0.19120329  0.19589436  0.31643953     0.74700
O92         O  0.29065520  0.18510556  0.17686010    -0.66900
O93         O  0.31883353  0.21411544  0.20777608    -0.54100
C94         C  0.31221748  0.19191922  0.18457154     0.73100
Zr95       Zr  0.25132951  0.20350724  0.19370882     2.77500
O96         O  0.25149613  0.14524453  0.19303786    -0.97600
O97         O  0.25084675  0.20750754  0.12386125    -0.78400
Zr98       Zr  0.25224099  0.20607704  0.30828074     2.70100
O99         O  0.25145927  0.14803726  0.31280439    -0.79700
O100        O  0.25272447  0.21125036  0.37800241    -0.98800
Zr101      Zr  0.29741974  0.25109409  0.24853307     2.21500
Zr102      Zr  0.20719239  0.25260525  0.25061572     2.11100
O103        O  0.22935504  0.20427879  0.25153167    -2.47500
O104        O  0.27439437  0.20366687  0.25053761    -0.79500
O105        O  0.22855731  0.25094920  0.19169828    -0.71700
O106        O  0.27572838  0.25279834  0.30723080    -2.32600
O107        O  0.27490329  0.25016772  0.19070796    -2.28800
O108        O  0.22984719  0.25389452  0.30831649    -0.73400
H109        H  0.22023436  0.31896389  0.24804338     0.78600
H110        H  0.28604231  0.25282919  0.32928307     0.79700
H111        H  0.21928295  0.18575543  0.25222370     0.81900
H112        H  0.28497255  0.24962909  0.16830736     0.79500
H113        H  0.25440641  0.28009290  0.38300873     0.42500
H114        H  0.23745765  0.22131496  0.38443965     0.41500
H115        H  0.25222407  0.14071446  0.28576049     0.41200
H116        H  0.23763804  0.13887764  0.20854654     0.39100
H117        H  0.24239759  0.18811092  0.11522566     0.42200
H118        H  0.25050027  0.31315925  0.11090133     0.37000
H119        H  0.25702040  0.36332140  0.21020877     0.43100
H120        H  0.24112439  0.36477474  0.28451355     0.39600
H121        H  0.24736123  0.13942679  0.16629452     0.44500
H122        H  0.23766279  0.28021040  0.11504007     0.43200
H123        H  0.25212490  0.36662041  0.32574128     0.43300
H124        H  0.25127196  0.18901478  0.38758856     0.43700
C125        C  0.09523726  0.10883890  0.14237967    -0.27500
C126        C  0.11491658  0.11796385  0.12048163     0.02100
C127        C  0.11677578  0.10762904  0.08207571     0.30200
C128        C  0.09937281  0.08813137  0.06626906    -0.19300
C129        C  0.07964753  0.07900549  0.08802319    -0.28700
C130        C  0.07764745  0.08952962  0.12641716     0.44200
C131        C  0.13380481  0.13752374  0.13798025     0.05400
O132        O  0.13543607  0.11680073  0.05955947    -0.57200
H133        H  0.10106921  0.08071356  0.03653239     0.18300
O134        O  0.05882490  0.08068024  0.14876946    -0.63900
H135        H  0.09370389  0.11628370  0.17211321     0.16800
C136        C  0.12902698  0.16749421  0.15455506     0.29000
C137        C  0.14737723  0.18562515  0.17042242    -0.24800
C138        C  0.17072498  0.17428908  0.17005751    -0.24100
C139        C  0.17530110  0.14402431  0.15345706     0.40500
C140        C  0.15697747  0.12610573  0.13760891    -0.26600
O141        O  0.10667238  0.17988411  0.15367405    -0.58500
H142        H  0.14331202  0.20879125  0.18263683     0.16100
O143        O  0.19756463  0.13137288  0.15286763    -0.59900
H144        H  0.16087536  0.10292319  0.12524102     0.14600
H145        H  0.06308385  0.05944746  0.15944255     0.46400
H146        H  0.10049618  0.17726195  0.18018844     0.41800
H147        H  0.19864461  0.11806557  0.17644066     0.45300
H148        H  0.13107045  0.13814986  0.04934031     0.36700
C149        C  0.15794462  0.14268191  0.38608446    -0.27500
C150        C  0.13724445  0.13657505  0.36540724     0.02100
C151        C  0.13422014  0.15065239  0.32885182     0.30200
C152        C  0.15165082  0.17059237  0.31369890    -0.19300
C153        C  0.17246252  0.17646322  0.33424440    -0.28700
C154        C  0.17550042  0.16234450  0.37076911     0.44200
C155        C  0.11857870  0.11642170  0.38274339     0.05400
O156        O  0.11440147  0.14483449  0.30748760    -0.57200
H157        H  0.14912391  0.18082751  0.28532977     0.18300
O158        O  0.19546796  0.16776080  0.39191428    -0.63900
H159        H  0.16036610  0.13254314  0.41450086     0.16800
C160        C  0.12347291  0.08561282  0.39709381     0.29000
C161        C  0.10553513  0.06749965  0.41428247    -0.24800
C162        C  0.08249816  0.07959233  0.41716810    -0.24100
C163        C  0.07769458  0.11042513  0.40237683     0.40500
C164        C  0.09563804  0.12847081  0.38551454    -0.26600
O165        O  0.14546644  0.07250639  0.39285545    -0.58500
H166        H  0.10962727  0.04377383  0.42491554     0.16100
O167        O  0.05556358  0.12342762  0.40454451    -0.59900
H168        H  0.09164599  0.15227398  0.37501027     0.14600
H169        H  0.19263263  0.18830954  0.40534136     0.46400
H170        H  0.15261764  0.07308587  0.41885280     0.41800
H171        H  0.05584879  0.13753030  0.42744556     0.45300
H172        H  0.11641103  0.12285958  0.29731153     0.36700
C173        C  0.09550712  0.37392964  0.11052990    -0.27500
C174        C  0.11797060  0.38665309  0.11650694     0.02100
C175        C  0.12246682  0.41868466  0.10634956     0.30200
C176        C  0.10465063  0.43733118  0.08973850    -0.19300
C177        C  0.08203726  0.42460117  0.08373347    -0.28700
C178        C  0.07765155  0.39250841  0.09435095     0.44200
C179        C  0.13657145  0.36613171  0.13313750     0.05400
O180        O  0.14413253  0.43203759  0.11292775    -0.57200
H181        H  0.10845814  0.46189925  0.08201125     0.18300
O182        O  0.05609465  0.37870066  0.08834628    -0.63900
H183        H  0.09187876  0.34923084  0.11791116     0.16800
C184        C  0.13323101  0.35076438  0.16877639     0.29000
C185        C  0.15099114  0.33147474  0.18404785    -0.24800
C186        C  0.17240665  0.32732368  0.16441337    -0.24100
C187        C  0.17560031  0.34241523  0.12839376     0.40500
C188        C  0.15768765  0.36148758  0.11299086    -0.26600
O189        O  0.11278554  0.35484387  0.18920820    -0.58500
H190        H  0.14817549  0.32040614  0.21188697     0.16100
O191        O  0.19583884  0.33799837  0.10749294    -0.59900
H192        H  0.16025872  0.37263823  0.08513553     0.14600
H193        H  0.05700229  0.36931492  0.06220071     0.46400
H194        H  0.11541659  0.37417806  0.20510610     0.41800
H195        H  0.20564577  0.35709284  0.11281358     0.45300
H196        H  0.14349602  0.43992385  0.13979643     0.36700
C197        C  0.34382249  0.13797366  0.11346500    -0.27500
C198        C  0.36507144  0.13221721  0.13268551     0.02100
C199        C  0.36895967  0.14639554  0.16885993     0.30200
C200        C  0.35197266  0.16660798  0.18484067    -0.19300
C201        C  0.33057926  0.17223302  0.16582319    -0.28700
C202        C  0.32663666  0.15774048  0.12972429     0.44200
C203        C  0.38369859  0.11301796  0.11391462     0.05400
O204        O  0.38925228  0.14041382  0.18897678    -0.57200
H205        H  0.35533563  0.17730265  0.21260931     0.18300
O206        O  0.30620893  0.16309701  0.10973989    -0.63900
H207        H  0.34074047  0.12765491  0.08535760     0.16800
C208        C  0.37955982  0.08159470  0.10112187     0.29000
C209        C  0.39781345  0.06405844  0.08397417    -0.24800
C210        C  0.42034544  0.07745921  0.07942462    -0.24100
C211        C  0.42419367  0.10923477  0.09170017     0.40500
C212        C  0.40597931  0.12662365  0.10864135    -0.26600
O213        O  0.35811226  0.06734131  0.10698413    -0.58500
H214        H  0.39444329  0.03970038  0.07497412     0.16100
O215        O  0.44566382  0.12374187  0.08720933    -0.59900
H216        H  0.40926356  0.15100987  0.11765729     0.14600
H217        H  0.30916785  0.18273675  0.09445813     0.46400
H218        H  0.35025644  0.06760357  0.08152714     0.41800
H219        H  0.44592046  0.13145265  0.06020428     0.45300
H220        H  0.38668834  0.11941482  0.20160313     0.36700
C221        C  0.41205716  0.37032445  0.38947330    -0.27500
C222        C  0.39011869  0.38350483  0.37990524     0.02100
C223        C  0.38606608  0.41628777  0.38694750     0.30200
C224        C  0.40343176  0.43490563  0.40457208    -0.19300
C225        C  0.42527756  0.42158071  0.41449783    -0.28700
C226        C  0.42962516  0.38908997  0.40619130     0.44200
C227        C  0.37129852  0.36263842  0.36415555     0.05400
O228        O  0.36516205  0.43037001  0.37680422    -0.57200
H229        H  0.39987341  0.45992088  0.41016534     0.18300
O230        O  0.45045245  0.37488385  0.41652757    -0.63900
H231        H  0.41541710  0.34510435  0.38501210     0.16800
C232        C  0.37566012  0.34145449  0.33346972     0.29000
C233        C  0.35745242  0.32245294  0.31899533    -0.24800
C234        C  0.33444840  0.32476754  0.33374907    -0.24100
C235        C  0.33039863  0.34502083  0.36561574     0.40500
C236        C  0.34871167  0.36354473  0.38050430    -0.26600
O237        O  0.39752641  0.33960178  0.31683115    -0.58500
H238        H  0.36130636  0.30659552  0.29522982     0.16100
O239        O  0.30861417  0.34719998  0.38244208    -0.59900
H240        H  0.34520122  0.37876564  0.40504433     0.14600
H241        H  0.45980242  0.37364677  0.39246179     0.46400
H242        H  0.39640391  0.35240406  0.29285604     0.41800
H243        H  0.30770833  0.32875910  0.40035764     0.45300
H244        H  0.36742212  0.43763367  0.34987736     0.36700
C245        C  0.38130380  0.08429991  0.39402696    -0.27500
C246        C  0.38653208  0.11466541  0.37909730     0.02100
C247        C  0.40971109  0.12626734  0.38149796     0.30200
C248        C  0.42723667  0.10763314  0.39876854    -0.19300
C249        C  0.42216314  0.07712292  0.41369454    -0.28700
C250        C  0.39887426  0.06545671  0.41093862     0.44200
C251        C  0.36754936  0.13448540  0.36219044     0.05400
O252        O  0.41508886  0.15653110  0.36892679    -0.57200
H253        H  0.44480764  0.11747269  0.40105915     0.18300
O254        O  0.39301056  0.03571142  0.42456896    -0.63900
H255        H  0.36352169  0.07506864  0.39231159     0.16800
C256        C  0.36946648  0.14687866  0.32461565     0.29000
C257        C  0.35184914  0.16674546  0.31001301    -0.24800
C258        C  0.33170356  0.17378768  0.33181351    -0.24100
C259        C  0.32952941  0.16084361  0.36917939     0.40500
C260        C  0.34739899  0.14139778  0.38406419    -0.26600
O261        O  0.38830792  0.13932350  0.30166189    -0.58500
H262        H  0.35368791  0.17600683  0.28108274     0.16100
O263        O  0.31016306  0.16718933  0.39152239    -0.59900
H264        H  0.34566794  0.13199153  0.41299779     0.14600
H265        H  0.39566926  0.02100223  0.40263724     0.46400
H266        H  0.38406508  0.11877685  0.28929332     0.41800
H267        H  0.31365612  0.18778778  0.40438328     0.45300
H268        H  0.42559012  0.15355784  0.34639452     0.36700
C269        C  0.13435314  0.33555375  0.36143938    -0.27500
C270        C  0.13913584  0.36722647  0.37204911     0.02100
C271        C  0.16173079  0.37984482  0.36563234     0.30200
C272        C  0.17907550  0.36098929  0.34825815    -0.19300
C273        C  0.17421632  0.32944103  0.33672176    -0.28700
C274        C  0.15162291  0.31670518  0.34379876     0.44200
C275        C  0.12028355  0.38716846  0.38895524     0.05400
O276        O  0.16689765  0.41075625  0.37570306    -0.57200
H277        H  0.19624698  0.37139183  0.34304135     0.18300
O278        O  0.14645049  0.28556735  0.33484859    -0.63900
H279        H  0.11713018  0.32539660  0.36688962     0.16800
C280        C  0.09935879  0.39297157  0.36855106     0.29000
C281        C  0.08182614  0.41228029  0.38459610    -0.24800
C282        C  0.08474594  0.42609501  0.42109389    -0.24100
C283        C  0.10580534  0.42024339  0.44153148     0.40500
C284        C  0.12329653  0.40078485  0.42545730    -0.26600
O285        O  0.09630686  0.38086049  0.33224301    -0.58500
H286        H  0.06592847  0.41661705  0.36822060     0.16100
O287        O  0.10910482  0.43226959  0.47782045    -0.59900
H288        H  0.13922735  0.39613596  0.44163741     0.14600
H289        H  0.13851104  0.28653344  0.30948198     0.46400
H290        H  0.08522775  0.36272329  0.33535127     0.41800
H291        H  0.11842672  0.45208083  0.47412239     0.45300
H292        H  0.16442231  0.42351861  0.35197163     0.36700
C293        C  0.36888851  0.35670651  0.16893511    -0.27500
C294        C  0.36605794  0.36824777  0.13132173     0.02100
C295        C  0.34570075  0.36002704  0.11050121     0.30200
C296        C  0.32847819  0.34070306  0.12761439    -0.19300
C297        C  0.33138943  0.32904930  0.16524596    -0.28700
C298        C  0.35176914  0.33736734  0.18593445     0.44200
C299        C  0.38503557  0.38772519  0.11395147     0.05400
O300        O  0.34317900  0.36920954  0.07279325    -0.57200
H301        H  0.31298482  0.33438635  0.11115956     0.18300
O302        O  0.35491321  0.32735436  0.22313028    -0.63900
H303        H  0.38441018  0.36295695  0.18535845     0.16800
C304        C  0.38057283  0.41807106  0.09794850     0.29000
C305        C  0.39896351  0.43561655  0.08148143    -0.24800
C306        C  0.42211330  0.42364276  0.08128269    -0.24100
C307        C  0.42658401  0.39356418  0.09838963     0.40500
C308        C  0.40813936  0.37598329  0.11445213    -0.26600
O309        O  0.35839348  0.43100591  0.09869380    -0.58500
H310        H  0.39507908  0.45884971  0.06918507     0.16100
O311        O  0.44882820  0.38083504  0.09933763    -0.59900
H312        H  0.41187138  0.35278162  0.12698371     0.14600
H313        H  0.34805660  0.34457477  0.23922537     0.46400
H314        H  0.35720708  0.44208323  0.12382100     0.41800
H315        H  0.45019150  0.36790486  0.07554615     0.45300
H316        H  0.32965652  0.38421159  0.07243718     0.36700
O317        O  0.46527097  0.43422795  0.92626810    -0.75200
O318        O  0.43661275  0.46346439  0.95584221    -0.54100
C319        C  0.44359695  0.44076793  0.93360313     0.78500
O320        O  0.04101934  0.43559370  0.57266373    -0.59800
O321        O  0.06899425  0.46603870  0.54295317    -0.52800
C322        C  0.06254463  0.44299874  0.56519211     0.70600
O323        O  0.46273222  0.43447438  0.57243753    -0.74300
O324        O  0.43538232  0.46353632  0.53961300    -0.54900
C325        C  0.44137658  0.44139645  0.56341356     0.76600
O326        O  0.04420254  0.43850752  0.92789405    -0.59500
O327        O  0.07078909  0.46762772  0.96229662    -0.52600
C328        C  0.06535738  0.44567787  0.93806392     0.73200
Zr329      Zr  0.50401148  0.45565205  0.94126823     2.54700
O330        O  0.50582077  0.39777825  0.93382991    -0.80100
O331        O  0.00554757  0.46347528  0.87243395    -0.93500
Zr332      Zr  0.50216305  0.45319321  0.55696891     2.64700
O333        O  0.50154045  0.39491975  0.55659544    -0.98400
O334        O  0.00041342  0.45453072  0.62596700    -0.80500
O335        O  0.48032629  0.45337314  0.99744650    -0.83800
O336        O  0.02542672  0.45452555  0.00010809    -2.18600
O337        O  0.04126982  0.06722115  0.92721769    -0.67200
O338        O  0.06890942  0.03857160  0.96002890    -0.51800
C339        C  0.06267180  0.06040014  0.93590737     0.71500
O340        O  0.46114893  0.06663252  0.57159879    -0.60100
O341        O  0.43431655  0.03697304  0.53848815    -0.52100
C342        C  0.43994078  0.05931802  0.56223080     0.73300
O343        O  0.03998269  0.06526113  0.57968403    -0.71500
O344        O  0.06816615  0.03911799  0.54503975    -0.50200
C345        C  0.06152113  0.05952065  0.57051798     0.74700
O346        O  0.46227558  0.06543868  0.92518971    -0.66900
O347        O  0.43494273  0.03515323  0.95627412    -0.54100
C348        C  0.44083291  0.05749130  0.93271728     0.73100
Zr349      Zr  0.00199041  0.04980265  0.94479295     2.77500
O350        O  0.00015360  0.10773562  0.95081475    -0.97600
O351        O  0.00324240  0.05198191  0.87487513    -0.78400
Zr352      Zr  0.00120708  0.04796121  0.55827180     2.70100
O353        O  0.00093690  0.10615539  0.55717388    -0.79700
O354        O  0.99971050  0.04347259  0.62804849    -0.98800
Zr355      Zr  0.45735811  0.00119097  0.49815774     2.21500
Zr356      Zr  0.04749230  0.50302071  0.00191948     2.11100
O357        O  0.02467837  0.05049831  0.50203299    -2.47500
O358        O  0.47905674  0.04966252  0.49987243    -0.79500
O359        O  0.02632757  0.50348418  0.94275892    -0.71700
O360        O  0.47847791  0.00167963  0.55741451    -2.32600
O361        O  0.48024268  0.00119405  0.94072969    -2.28800
O362        O  0.02418222  0.50074036  0.55937277    -0.73400
H363        H  0.03531047  0.43560917  0.50000164     0.78600
H364        H  0.46784612  0.00138544  0.57914405     0.79700
H365        H  0.03365718  0.06885778  0.00348744     0.81900
H366        H  0.47039801  0.00095500  0.91806899     0.79500
H367        H  0.48846884  0.46877551  0.63375629     0.42500
H368        H  0.01339853  0.02994044  0.63476134     0.41500
H369        H  0.49344297  0.11388492  0.53476229     0.41200
H370        H  0.01463536  0.11370170  0.96485768     0.39100
H371        H  0.00138795  0.07494643  0.86859839     0.42200
H372        H  0.51082736  0.44283268  0.86155669     0.37000
H373        H  0.50642651  0.38941668  0.96047301     0.43100
H374        H  0.01429592  0.38843008  0.54091460     0.39600
H375        H  0.00266336  0.11586721  0.92436353     0.44500
H376        H  0.51536341  0.47951837  0.86662860     0.43200
H377        H  0.50734821  0.38856726  0.58234482     0.43300
H378        H  0.00396263  0.06506386  0.63743487     0.43700
O379        O  0.29044805  0.31618660  0.67257980    -0.75200
O380        O  0.31798673  0.28832233  0.70670123    -0.54100
C381        C  0.31181883  0.30975279  0.68203651     0.78500
O382        O  0.21342252  0.31777118  0.82472568    -0.59800
O383        O  0.18549876  0.28784546  0.79446797    -0.52800
C384        C  0.19187693  0.31015619  0.81760437     0.70600
O385        O  0.29335026  0.31684633  0.82113525    -0.74300
O386        O  0.32017985  0.28667575  0.78859473    -0.54900
C387        C  0.31465015  0.30882374  0.81259913     0.76600
O388        O  0.21142299  0.31492270  0.67522668    -0.59500
O389        O  0.18430359  0.28799747  0.71111027    -0.52600
C390        C  0.19010703  0.30865736  0.68534796     0.73200
Zr391      Zr  0.25132517  0.29866754  0.69205563     2.54700
O392        O  0.25106519  0.35688474  0.69346948    -0.80100
O393        O  0.25019107  0.29571643  0.62213561    -0.93500
Zr394      Zr  0.25300409  0.30038326  0.80645130     2.64700
O395        O  0.25360671  0.35865420  0.80723091    -0.98400
O396        O  0.25465112  0.29601401  0.87624585    -0.80500
O397        O  0.27484633  0.29973405  0.74832445    -0.83800
O398        O  0.22955426  0.30033125  0.75008821    -2.18600
O399        O  0.21126795  0.18721851  0.67800463    -0.67200
O400        O  0.18429436  0.21621786  0.71164894    -0.51800
C401        C  0.18999419  0.19405959  0.68767591     0.71500
O402        O  0.29161502  0.18744032  0.82405135    -0.60100
O403        O  0.31899734  0.21520722  0.78946520    -0.50700
C404        C  0.31293139  0.19371332  0.81412480     0.73300
O405        O  0.21275389  0.18917765  0.82825227    -0.71500
O406        O  0.18527969  0.21676087  0.79394396    -0.50200
C407        C  0.19133833  0.19562707  0.81899077     0.74700
O408        O  0.29011925  0.18535274  0.67594252    -0.66900
O409        O  0.31809319  0.21426633  0.70742501    -0.54100
C410        C  0.31164797  0.19215343  0.68395196     0.73100
Zr411      Zr  0.25104047  0.20411623  0.69416572     2.77500
O412        O  0.25039305  0.14589440  0.69509400    -0.97600
O413        O  0.25080788  0.20644063  0.62421866    -0.78400
Zr414      Zr  0.25213899  0.20601356  0.80889811     2.70100
O415        O  0.25093409  0.14791138  0.81066451    -0.79700
O416        O  0.25339632  0.20971183  0.87881143    -0.98800
Zr417      Zr  0.29702447  0.25150652  0.74852679     2.21500
Zr418      Zr  0.20681841  0.25247925  0.75187841     2.11100
O419        O  0.22915741  0.20445054  0.75223352    -2.47500
O420        O  0.27416657  0.20398598  0.75085604    -0.79500
O421        O  0.22811588  0.25154241  0.69283940    -0.71700
O422        O  0.27561904  0.25281777  0.80758952    -2.32600
O423        O  0.27419260  0.25116074  0.69111269    -2.28800
O424        O  0.22943246  0.25357436  0.80956074    -0.73400
H425        H  0.21958664  0.31899232  0.75001228     0.78600
H426        H  0.28615694  0.25295989  0.82936972     0.79700
H427        H  0.21906167  0.18594531  0.75297563     0.81900
H428        H  0.28413795  0.25076912  0.66855226     0.79500
H429        H  0.24930566  0.31711993  0.88570305     0.42500
H430        H  0.25570493  0.18740114  0.88757364     0.41500
H431        H  0.24482287  0.14170981  0.78509243     0.41200
H432        H  0.23634269  0.14014142  0.71048313     0.39100
H433        H  0.25304490  0.18398976  0.61599781     0.42200
H434        H  0.24083428  0.27630183  0.61669750     0.37000
H435        H  0.26081236  0.36248283  0.71606172     0.43100
H436        H  0.24026766  0.36520242  0.79069217     0.39600
H437        H  0.24635616  0.13968431  0.66844114     0.44500
H438        H  0.26642097  0.28996440  0.61434393     0.43200
H439        H  0.24866532  0.36454189  0.83361198     0.43300
H440        H  0.26851164  0.22044907  0.88458941     0.43700
C441        C  0.09546102  0.10888888  0.64345235    -0.27500
C442        C  0.11485796  0.11860771  0.62130057     0.02100
C443        C  0.11660029  0.10860901  0.58273504     0.30200
C444        C  0.09944627  0.08862027  0.56713434    -0.19300
C445        C  0.07997452  0.07891628  0.58911336    -0.28700
C446        C  0.07799888  0.08932138  0.62757706     0.44200
C447        C  0.13375215  0.13806763  0.63880756     0.05400
O448        O  0.13494590  0.11843579  0.55990339    -0.57200
H449        H  0.10105114  0.08140001  0.53731331     0.18300
O450        O  0.05921870  0.08036313  0.64995277    -0.63900
H451        H  0.09402404  0.11612999  0.67327297     0.16800
C452        C  0.12905341  0.16790702  0.65579089     0.29000
C453        C  0.14748871  0.18597068  0.67133609    -0.24800
C454        C  0.17080150  0.17461943  0.67049781    -0.24100
C455        C  0.17528616  0.14431226  0.65395432     0.40500
C456        C  0.15688316  0.12652643  0.63819646    -0.26600
O457        O  0.10666751  0.18018517  0.65588105    -0.58500
H458        H  0.14349515  0.20908124  0.68376834     0.16100
O459        O  0.19751845  0.13155065  0.65324274    -0.59900
H460        H  0.16067802  0.10335675  0.62570461     0.14600
H461        H  0.06406857  0.06000696  0.66229181     0.46400
H462        H  0.10069801  0.17667153  0.68237542     0.41800
H463        H  0.19833077  0.11730532  0.67604065     0.45300
H464        H  0.13136880  0.14098229  0.55318878     0.36700
C465        C  0.15790173  0.13991764  0.88646456    -0.27500
C466        C  0.13636339  0.13691321  0.86712712     0.02100
C467        C  0.13274933  0.15418683  0.83283989     0.30200
C468        C  0.15046570  0.17404943  0.81843369    -0.19300
C469        C  0.17231188  0.17652795  0.83715390    -0.28700
C470        C  0.17584011  0.15933560  0.87171832     0.44200
C471        C  0.11749752  0.11659453  0.88359545     0.05400
O472        O  0.11213705  0.15123388  0.81266795    -0.57200
H473        H  0.14730151  0.18669209  0.79169891     0.18300
O474        O  0.19670359  0.16121215  0.89137565    -0.63900
H475        H  0.16077784  0.12733549  0.91332215     0.16800
C476        C  0.12166318  0.08449101  0.89396018     0.29000
C477        C  0.10366573  0.06630823  0.91080302    -0.24800
C478        C  0.08132018  0.07963546  0.91724385    -0.24100
C479        C  0.07715160  0.11169545  0.90632408     0.40500
C480        C  0.09515123  0.12981728  0.88981398    -0.26600
O481        O  0.14295080  0.07036375  0.88627361    -0.58500
H482        H  0.10714205  0.04162733  0.91846381     0.16100
O483        O  0.05571825  0.12592188  0.91246050    -0.59900
H484        H  0.09174530  0.15458746  0.88249128     0.14600
H485        H  0.19466723  0.17924100  0.90956791     0.46400
H486        H  0.15076531  0.06792649  0.91160474     0.41800
H487        H  0.05633978  0.13403262  0.93923319     0.45300
H488        H  0.11508075  0.13392596  0.79379758     0.36700
C489        C  0.09485077  0.37190589  0.60777436    -0.27500
C490        C  0.11650313  0.38556504  0.61750912     0.02100
C491        C  0.12044170  0.41825538  0.61018960     0.30200
C492        C  0.10286492  0.43674282  0.59281228    -0.19300
C493        C  0.08107106  0.42312544  0.58314486    -0.28700
C494        C  0.07723931  0.39032005  0.59062822     0.44200
C495        C  0.13501984  0.36531263  0.63463792     0.05400
O496        O  0.14134204  0.43237419  0.62015883    -0.57200
H497        H  0.10614134  0.46188008  0.58745463     0.18300
O498        O  0.05652078  0.37577375  0.58062011    -0.63900
H499        H  0.09173877  0.34669390  0.61292884     0.16800
C500        C  0.13118083  0.34899543  0.66949564     0.29000
C501        C  0.14899894  0.32993795  0.68516246    -0.24800
C502        C  0.17098189  0.32718429  0.66673672    -0.24100
C503        C  0.17458782  0.34333264  0.63146372     0.40500
C504        C  0.15664024  0.36205840  0.61569713    -0.26600
O505        O  0.11023622  0.35203873  0.68882839    -0.58500
H506        H  0.14577422  0.31800330  0.71235569     0.16100
O507        O  0.19533579  0.34035710  0.61156925    -0.59900
H508        H  0.15959952  0.37408396  0.58847464     0.14600
H509        H  0.05879567  0.36874121  0.55363047     0.46400
H510        H  0.11176681  0.37198668  0.70400540     0.41800
H511        H  0.20445663  0.35987383  0.61784786     0.45300
H512        H  0.14022239  0.43611609  0.64826853     0.36700
C513        C  0.34475566  0.13878560  0.61361342    -0.27500
C514        C  0.36572406  0.13315838  0.63375708     0.02100
C515        C  0.36897162  0.14744155  0.66999518     0.30200
C516        C  0.35151174  0.16725462  0.68536867    -0.19300
C517        C  0.33031172  0.17256706  0.66562435    -0.28700
C518        C  0.32709588  0.15820549  0.62925695     0.44200
C519        C  0.38455843  0.11367272  0.61592223     0.05400
O520        O  0.38908835  0.14195385  0.69075977    -0.57200
H521        H  0.35441025  0.17800146  0.71322446     0.18300
O522        O  0.30694660  0.16332649  0.60846043    -0.63900
H523        H  0.34221577  0.12848633  0.58534466     0.16800
C524        C  0.38038332  0.08216911  0.60343138     0.29000
C525        C  0.39846628  0.06465440  0.58579400    -0.24800
C526        C  0.42084037  0.07822635  0.58027594    -0.24100
C527        C  0.42483869  0.10993943  0.59264921     0.40500
C528        C  0.40683925  0.12722893  0.61039694    -0.26600
O529        O  0.35897617  0.06793909  0.60973690    -0.58500
H530        H  0.39505518  0.04026872  0.57693498     0.16100
O531        O  0.44617607  0.12456946  0.58707389    -0.59900
H532        H  0.41018436  0.15162104  0.61931704     0.14600
H533        H  0.31051331  0.18185263  0.59159075     0.46400
H534        H  0.35104036  0.06785024  0.58434495     0.41800
H535        H  0.44554925  0.13332327  0.56055000     0.45300
H536        H  0.38535693  0.12345419  0.70758021     0.36700
C537        C  0.41201335  0.37005035  0.88859076    -0.27500
C538        C  0.38985281  0.38329499  0.88062492     0.02100
C539        C  0.38562799  0.41565225  0.88971177     0.30200
C540        C  0.40319564  0.43393849  0.90712717    -0.19300
C541        C  0.42539850  0.42075919  0.91504189    -0.28700
C542        C  0.42979285  0.38854419  0.90523785     0.44200
C543        C  0.37104888  0.36308462  0.86381707     0.05400
O544        O  0.36437033  0.42971822  0.88169908    -0.57200
H545        H  0.39950429  0.45869083  0.91402333     0.18300
O546        O  0.45099674  0.37441837  0.91347060    -0.63900
H547        H  0.41545681  0.34508485  0.88249076     0.16800
C548        C  0.37511208  0.34428773  0.83089657     0.29000
C549        C  0.35695075  0.32559153  0.81570169    -0.24800
C550        C  0.33415482  0.32650673  0.83153192    -0.24100
C551        C  0.33036439  0.34471617  0.86516414     0.40500
C552        C  0.34872669  0.36251280  0.88107694    -0.26600
O553        O  0.39662145  0.34448806  0.81291125    -0.58500
H554        H  0.36069493  0.31085998  0.79091333     0.16100
O555        O  0.30884968  0.34519246  0.88306348    -0.59900
H556        H  0.34546707  0.37601336  0.90711964     0.14600
H557        H  0.45977084  0.37429526  0.88878616     0.46400
H558        H  0.39492205  0.35971609  0.79118106     0.41800
H559        H  0.30906579  0.32671557  0.90097816     0.45300
H560        H  0.36459207  0.43388077  0.85360162     0.36700
C561        C  0.38055428  0.08433009  0.89616759    -0.27500
C562        C  0.38611347  0.11361217  0.87856987     0.02100
C563        C  0.40967438  0.12400852  0.87840767     0.30200
C564        C  0.42719092  0.10525055  0.89555066    -0.19300
C565        C  0.42175807  0.07593456  0.91336271    -0.28700
C566        C  0.39807337  0.06549813  0.91331966     0.44200
C567        C  0.36714545  0.13366818  0.86166338     0.05400
O568        O  0.41550785  0.15345002  0.86370487    -0.57200
H569        H  0.44506387  0.11423743  0.89563334     0.18300
O570        O  0.39169520  0.03713118  0.93020809    -0.63900
H571        H  0.36250767  0.07597916  0.89655613     0.16800
C572        C  0.36884469  0.14554492  0.82377746     0.29000
C573        C  0.35150422  0.16597527  0.80933556    -0.24800
C574        C  0.33171048  0.17393841  0.83146422    -0.24100
C575        C  0.32962654  0.16139524  0.86903748     0.40500
C576        C  0.34727582  0.14149373  0.88384446    -0.26600
O577        O  0.38715720  0.13685586  0.80028460    -0.58500
H578        H  0.35321666  0.17487141  0.78024507     0.16100
O579        O  0.31058337  0.16867367  0.89171015    -0.59900
H580        H  0.34561822  0.13252918  0.91298841     0.14600
H581        H  0.39374995  0.02076799  0.90986186     0.46400
H582        H  0.38234767  0.11618863  0.78879210     0.41800
H583        H  0.31411533  0.18996381  0.90280007     0.45300
H584        H  0.42578425  0.14910878  0.84121661     0.36700
C585        C  0.13300176  0.33618345  0.85956444    -0.27500
C586        C  0.13805521  0.36775545  0.87022654     0.02100
C587        C  0.16075190  0.38003727  0.86420646     0.30200
C588        C  0.17814136  0.36081023  0.84775184    -0.19300
C589        C  0.17320748  0.32921277  0.83660131    -0.28700
C590        C  0.15035151  0.31690209  0.84277872     0.44200
C591        C  0.11956888  0.38795837  0.88743114     0.05400
O592        O  0.16600698  0.41101115  0.87384305    -0.57200
H593        H  0.19543360  0.37096237  0.84293931     0.18300
O594        O  0.14500543  0.28580020  0.83386582    -0.63900
H595        H  0.11558894  0.32643368  0.86449083     0.16800
C596        C  0.09946268  0.39637569  0.86623422     0.29000
C597        C  0.08215239  0.41562230  0.88293641    -0.24800
C598        C  0.08463834  0.42689551  0.92073437    -0.24100
C599        C  0.10512580  0.41904326  0.94166846     0.40500
C600        C  0.12232847  0.39950247  0.92500327    -0.26600
O601        O  0.09703041  0.38685201  0.82871117    -0.58500
H602        H  0.06676197  0.42189925  0.86616488     0.16100
O603        O  0.10801094  0.42902284  0.97894263    -0.59900
H604        H  0.13780446  0.39312270  0.94151862     0.14600
H605        H  0.13747534  0.28675086  0.80816608     0.46400
H606        H  0.08609475  0.36839553  0.82955014     0.41800
H607        H  0.11749335  0.44887026  0.97714521     0.45300
H608        H  0.16032426  0.42413194  0.85194176     0.36700
C609        C  0.36807298  0.35680289  0.66819880    -0.27500
C610        C  0.36574004  0.36756384  0.63023854     0.02100
C611        C  0.34568186  0.35898962  0.60889155     0.30200
C612        C  0.32820361  0.33994436  0.62586689    -0.19300
C613        C  0.33061001  0.32905288  0.66394324    -0.28700
C614        C  0.35072737  0.33783842  0.68505933     0.44200
C615        C  0.38488073  0.38677657  0.61317355     0.05400
O616        O  0.34364648  0.36774745  0.57096654    -0.57200
H617        H  0.31292325  0.33331409  0.60907488     0.18300
O618        O  0.35334263  0.32878399  0.72265721    -0.63900
H619        H  0.38336593  0.36341385  0.68499794     0.16800
C620        C  0.38068539  0.41740532  0.59788103     0.29000
C621        C  0.39921856  0.43484986  0.58180796    -0.24800
C622        C  0.42227009  0.42254887  0.58153991    -0.24100
C623        C  0.42650541  0.39221249  0.59817615     0.40500
C624        C  0.40786411  0.37463330  0.61361121    -0.26600
O625        O  0.35864023  0.43073656  0.59906065    -0.58500
H626        H  0.39553499  0.45831222  0.56998810     0.16100
O627        O  0.44870800  0.37936988  0.59955426    -0.59900
H628        H  0.41135013  0.35124012  0.62581984     0.14600
H629        H  0.34411349  0.34463621  0.73759532     0.46400
H630        H  0.35745706  0.44090359  0.62474265     0.41800
H631        H  0.45022793  0.36645930  0.57577527     0.45300
H632        H  0.33107080  0.38418592  0.57031931     0.36700
O633        O  0.46575438  0.93313742  0.42795166    -0.75200
O634        O  0.43728133  0.96362493  0.45610962    -0.54100
C635        C  0.44410059  0.94026423  0.43467115     0.78500
O636        O  0.04122228  0.93614951  0.07438098    -0.59800
O637        O  0.06891041  0.96652032  0.04395943    -0.52800
C638        C  0.06266879  0.94367876  0.06669051     0.70600
O639        O  0.46222229  0.93430587  0.07004195    -0.74300
O640        O  0.43491950  0.96388901  0.03790512    -0.54900
C641        C  0.44085347  0.94136456  0.06113875     0.76600
O642        O  0.04477479  0.93934171  0.42701288    -0.59500
O643        O  0.07119693  0.96729223  0.46307189    -0.52600
C644        C  0.06589693  0.94586690  0.43809211     0.73200
Zr645      Zr  0.50432583  0.95522665  0.44300419     2.54700
O646        O  0.50694943  0.89730435  0.43695050    -0.80100
O647        O  0.00519381  0.96106032  0.37200725    -0.93500
Zr648      Zr  0.50195784  0.95342579  0.05686556     2.64700
O649        O  0.50151498  0.89520239  0.06074238    -0.98400
O650        O  0.00056838  0.95108764  0.12573638    -0.80500
O651        O  0.48069696  0.95398377  0.49929340    -0.83800
O652        O  0.02582342  0.95460983  0.49990881    -2.18600
O653        O  0.04178972  0.56560330  0.42568368    -0.67200
O654        O  0.06934515  0.53828987  0.46020950    -0.51800
C655        C  0.06318759  0.55944632  0.43517161     0.71500
O656        O  0.46086865  0.56530485  0.07273760    -0.60100
O657        O  0.43414681  0.53678940  0.03796220    -0.52100
C658        C  0.43972826  0.55863979  0.06238425     0.73300
O659        O  0.03938726  0.56524223  0.08008974    -0.71500
O660        O  0.06753733  0.53987974  0.04452316    -0.50200
C661        C  0.06089060  0.56000113  0.07034351     0.74700
O662        O  0.46233823  0.56618263  0.42605596    -0.66900
O663        O  0.43499548  0.53603569  0.45739952    -0.54100
C664        C  0.44093790  0.55846182  0.43391518     0.73100
Zr665      Zr  0.00218164  0.54959759  0.44372386     2.77500
O666        O  0.00144678  0.60765576  0.44876265    -0.97600
O667        O  0.00191799  0.55061408  0.37370800    -0.78400
Zr668      Zr  0.00078811  0.54787746  0.05836082     2.70100
O669        O  0.00086064  0.60605888  0.05761842    -0.79700
O670        O  0.99787370  0.54263958  0.12800563    -0.98800
Zr671      Zr  0.45688963  0.50055048  0.99780189     2.21500
Zr672      Zr  0.04778165  0.00304367  0.50200763     2.11100
O673        O  0.02418100  0.55029702  0.00195971    -2.47500
O674        O  0.47844479  0.54908211  0.99989786    -0.79500
O675        O  0.02655162  0.00352864  0.44295527    -0.71700
O676        O  0.47833977  0.50026251  0.05667710    -2.32600
O677        O  0.47994280  0.50136537  0.44134422    -2.28800
O678        O  0.02436198  0.00037032  0.05969929    -0.73400
H679        H  0.03578366  0.93574023  0.99970633     0.78600
H680        H  0.46785522  0.49969868  0.07858113     0.79700
H681        H  0.03378002  0.56869574  0.50257334     0.81900
H682        H  0.47004141  0.50127489  0.41875409     0.79500
H683        H  0.49819641  0.93597254  0.13586795     0.42500
H684        H  0.00946090  0.52585629  0.13470854     0.41500
H685        H  0.49084668  0.61200083  0.03399280     0.41200
H686        H  0.01563042  0.61321732  0.46382567     0.39100
H687        H  0.01467673  0.53578983  0.36607031     0.42200
H688        H  0.48773433  0.96013228  0.36580919     0.37000
H689        H  0.50544990  0.88925659  0.46365065     0.43100
H690        H  0.01687661  0.88956984  0.03600360     0.39600
H691        H  0.00489157  0.61533704  0.42239475     0.44500
H692        H  0.51292155  0.94505588  0.36321716     0.43200
H693        H  0.50855323  0.89001262  0.08603738     0.43300
H694        H  0.00475676  0.56264643  0.13820462     0.43700
O695        O  0.29112417  0.81441876  0.17156294    -0.75200
O696        O  0.31855216  0.78662493  0.20602861    -0.54100
C697        C  0.31245589  0.80790017  0.18104222     0.78500
O698        O  0.21428506  0.81744200  0.32511648    -0.59800
O699        O  0.18632897  0.78899164  0.29300210    -0.52800
C700        C  0.19277951  0.81054868  0.31713788     0.70600
O701        O  0.29335553  0.81685597  0.32070383    -0.74300
O702        O  0.32027325  0.78597800  0.28947022    -0.54900
C703        C  0.31464996  0.80860496  0.31282928     0.76600
O704        O  0.21222420  0.81423162  0.17363210    -0.59500
O705        O  0.18491289  0.78721895  0.20902401    -0.52600
C706        C  0.19086591  0.80800249  0.18351980     0.73200
Zr707      Zr  0.25197125  0.79741075  0.19082478     2.54700
O708        O  0.25216658  0.85560785  0.18831846    -0.80100
O709        O  0.25187726  0.79311132  0.12103727    -0.93500
Zr710      Zr  0.25333912  0.80050873  0.30505446     2.64700
O711        O  0.25403055  0.85858800  0.29992520    -0.98400
O712        O  0.25479314  0.80283828  0.37499084    -0.80500
O713        O  0.27539663  0.79915784  0.24726458    -0.83800
O714        O  0.22998026  0.80018920  0.24862381    -2.18600
O715        O  0.21095122  0.68655108  0.17887155    -0.67200
O716        O  0.18405818  0.71695041  0.21085313    -0.51800
C717        C  0.18964924  0.69419858  0.18768236     0.71500
O718        O  0.29108088  0.68696984  0.32507394    -0.60100
O719        O  0.31864128  0.71417911  0.29026183    -0.50700
C720        C  0.31243882  0.69290256  0.31509435     0.73300
O721        O  0.21218984  0.68920963  0.32736603    -0.71500
O722        O  0.18503552  0.71704266  0.29255857    -0.50200
C723        C  0.19088518  0.69588783  0.31767774     0.74700
O724        O  0.29027537  0.68427436  0.17733807    -0.66900
O725        O  0.31838712  0.71258263  0.20933553    -0.54100
C726        C  0.31181855  0.69065412  0.18573854     0.73100
Zr727      Zr  0.25106009  0.70283062  0.19474120     2.77500
O728        O  0.25033594  0.64464300  0.19853452    -0.97600
O729        O  0.25003003  0.70349774  0.12471217    -0.78400
Zr730      Zr  0.25181789  0.70606299  0.30942442     2.70100
O731        O  0.25024878  0.64817407  0.31624541    -0.79700
O732        O  0.25243027  0.71289302  0.37895777    -0.98800
Zr733      Zr  0.29723845  0.75068255  0.24891902     2.21500
Zr734      Zr  0.20713333  0.75246377  0.25098863     2.11100
O735        O  0.22906900  0.70406313  0.25249916    -2.47500
O736        O  0.27404896  0.70334052  0.25161319    -0.79500
O737        O  0.22858389  0.75053798  0.19217055    -0.71700
O738        O  0.27557811  0.75263064  0.30775451    -2.32600
O739        O  0.27455535  0.74964420  0.19126737    -2.28800
O740        O  0.22950114  0.75390953  0.30893429    -0.73400
H741        H  0.22007561  0.81890916  0.24826486     0.78600
H742        H  0.28597360  0.75286586  0.32970548     0.79700
H743        H  0.21886478  0.68566903  0.25332722     0.81900
H744        H  0.28463105  0.74891975  0.16888603     0.79500
H745        H  0.26123521  0.78184608  0.38292311     0.42500
H746        H  0.23613622  0.71901890  0.38582445     0.41500
H747        H  0.24554565  0.64039561  0.29049966     0.41200
H748        H  0.23640261  0.63948251  0.21450093     0.39100
H749        H  0.25912831  0.72272576  0.11727386     0.42200
H750        H  0.24911223  0.81521977  0.11192023     0.37000
H751        H  0.25586887  0.86227830  0.21493902     0.43100
H752        H  0.23846409  0.86452577  0.28932726     0.39600
H753        H  0.24605029  0.63756559  0.17230096     0.44500
H754        H  0.23711047  0.78160385  0.11495656     0.43200
H755        H  0.25361263  0.86615323  0.32689356     0.43300
H756        H  0.25424451  0.69092017  0.38923966     0.43700
C757        C  0.09470188  0.60968706  0.14312216    -0.27500
C758        C  0.11426042  0.61909413  0.12112428     0.02100
C759        C  0.11620591  0.60864282  0.08276423     0.30200
C760        C  0.09888738  0.58900256  0.06698974    -0.19300
C761        C  0.07929213  0.57955523  0.08883503    -0.28700
C762        C  0.07727710  0.59002304  0.12727392     0.44200
C763        C  0.13316729  0.63856937  0.13865755     0.05400
O764        O  0.13500851  0.61751698  0.06038487    -0.57200
H765        H  0.10059452  0.58160440  0.03724695     0.18300
O766        O  0.05858001  0.58086064  0.14973701    -0.63900
H767        H  0.09317767  0.61711781  0.17286279     0.16800
C768        C  0.12865397  0.66897369  0.15430880     0.29000
C769        C  0.14713939  0.68699504  0.16991165    -0.24800
C770        C  0.17029776  0.67497357  0.17051437    -0.24100
C771        C  0.17451164  0.64406527  0.15553202     0.40500
C772        C  0.15612563  0.62642745  0.13949178    -0.26600
O773        O  0.10644547  0.68179404  0.15299798    -0.58500
H774        H  0.14332546  0.71053790  0.18128227     0.16100
O775        O  0.19642572  0.63039461  0.15707406    -0.59900
H776        H  0.15976225  0.60282316  0.12810850     0.14600
H777        H  0.06296290  0.55958243  0.16013842     0.46400
H778        H  0.09975125  0.67820977  0.17901129     0.41800
H779        H  0.19706894  0.61946577  0.18239364     0.45300
H780        H  0.13126698  0.63942145  0.05127245     0.36700
C781        C  0.15636234  0.64434828  0.38781181    -0.27500
C782        C  0.13633040  0.63701726  0.36599938     0.02100
C783        C  0.13380098  0.65053830  0.32905365     0.30200
C784        C  0.15139115  0.67039123  0.31417674    -0.19300
C785        C  0.17178704  0.67698747  0.33553603    -0.28700
C786        C  0.17396693  0.66422851  0.37295547     0.44200
C787        C  0.11775080  0.61635289  0.38268212     0.05400
O788        O  0.11433130  0.64423173  0.30704648    -0.57200
H789        H  0.14933828  0.67994615  0.28536866     0.18300
O790        O  0.19307866  0.67128337  0.39544649    -0.63900
H791        H  0.15820678  0.63496789  0.41672277     0.16800
C792        C  0.12289714  0.58570609  0.39737066     0.29000
C793        C  0.10501376  0.56719843  0.41410545    -0.24800
C794        C  0.08184257  0.57883322  0.41644016    -0.24100
C795        C  0.07683384  0.60958215  0.40151394     0.40500
C796        C  0.09466817  0.62791268  0.38487120    -0.26600
O797        O  0.14515969  0.57325017  0.39425108    -0.58500
H798        H  0.10928424  0.54362360  0.42503819     0.16100
O799        O  0.05465810  0.62241487  0.40369558    -0.59900
H800        H  0.09051355  0.65163891  0.37428066     0.14600
H801        H  0.18909481  0.69178193  0.40819630     0.46400
H802        H  0.15188965  0.57437244  0.42052177     0.41800
H803        H  0.05383393  0.63266844  0.42936637     0.45300
H804        H  0.11736135  0.62303684  0.29528554     0.36700
C805        C  0.09495418  0.87407254  0.11307027    -0.27500
C806        C  0.11749520  0.88687600  0.11806473     0.02100
C807        C  0.12206031  0.91843394  0.10591043     0.30200
C808        C  0.10410056  0.93674767  0.08934848    -0.19300
C809        C  0.08139038  0.92406986  0.08469772    -0.28700
C810        C  0.07704195  0.89220087  0.09635589     0.44200
C811        C  0.13618693  0.86662748  0.13493489     0.05400
O812        O  0.14400392  0.93160282  0.11008253    -0.57200
H813        H  0.10794121  0.96101136  0.08036594     0.18300
O814        O  0.05552818  0.87813498  0.09072867    -0.63900
H815        H  0.09134283  0.84957471  0.12139781     0.16800
C816        C  0.13280727  0.85092991  0.17039012     0.29000
C817        C  0.15041543  0.83106115  0.18513757    -0.24800
C818        C  0.17185883  0.82705196  0.16546176    -0.24100
C819        C  0.17517899  0.84285892  0.12993286     0.40500
C820        C  0.15732119  0.86214564  0.11482720    -0.26600
O821        O  0.11250273  0.85525371  0.19115129    -0.58500
H822        H  0.14751241  0.81956029  0.21269890     0.16100
O823        O  0.19553385  0.83899307  0.10919090    -0.59900
H824        H  0.15996072  0.87353766  0.08713399     0.14600
H825        H  0.05675450  0.86730672  0.06543795     0.46400
H826        H  0.11553631  0.87414697  0.20761166     0.41800
H827        H  0.20481025  0.85868607  0.11386967     0.45300
H828        H  0.14413273  0.94082278  0.13634125     0.36700
C829        C  0.34417085  0.63774893  0.11439276    -0.27500
C830        C  0.36557445  0.63265461  0.13343547     0.02100
C831        C  0.36925338  0.64672043  0.16971765     0.30200
C832        C  0.35182281  0.66601750  0.18607064    -0.19300
C833        C  0.33029708  0.67103566  0.16716349    -0.28700
C834        C  0.32659339  0.65665207  0.13094797     0.44200
C835        C  0.38425013  0.61353322  0.11469799     0.05400
O836        O  0.38975231  0.64151134  0.18957567    -0.57200
H837        H  0.35502644  0.67663217  0.21393544     0.18300
O838        O  0.30603806  0.66132399  0.11107765    -0.63900
H839        H  0.34122384  0.62750655  0.08620594     0.16800
C840        C  0.37990235  0.58230788  0.10140063     0.29000
C841        C  0.39804306  0.56465507  0.08422361    -0.24800
C842        C  0.42061343  0.57783937  0.07980927    -0.24100
C843        C  0.42469229  0.60949534  0.09228529     0.40500
C844        C  0.40663356  0.62693012  0.10967118    -0.26600
O845        O  0.35828031  0.56838364  0.10666339    -0.58500
H846        H  0.39452551  0.54040617  0.07495105     0.16100
O847        O  0.44619071  0.62383580  0.08729077    -0.59900
H848        H  0.41006895  0.65121107  0.11893740     0.14600
H849        H  0.30846920  0.68134621  0.09627085     0.46400
H850        H  0.35095038  0.56793791  0.08079204     0.41800
H851        H  0.44499933  0.63550090  0.06249333     0.45300
H852        H  0.38703088  0.62157551  0.20441820     0.36700
C853        C  0.41169471  0.86933251  0.39095125    -0.27500
C854        C  0.38970036  0.88291990  0.38238120     0.02100
C855        C  0.38589656  0.91549436  0.39074074     0.30200
C856        C  0.40363023  0.93366229  0.40801941    -0.19300
C857        C  0.42569072  0.92021313  0.41638975    -0.28700
C858        C  0.42969650  0.88773707  0.40728343     0.44200
C859        C  0.37077435  0.86304272  0.36502912     0.05400
O860        O  0.36497109  0.92999132  0.38165887    -0.57200
H861        H  0.40020876  0.95860460  0.41425437     0.18300
O862        O  0.45075948  0.87331972  0.41573272    -0.63900
H863        H  0.41488308  0.84422549  0.38533540     0.16800
C864        C  0.37501873  0.84401068  0.33232642     0.29000
C865        C  0.35684844  0.82570788  0.31644980    -0.24800
C866        C  0.33394724  0.82671899  0.33178543    -0.24100
C867        C  0.32982434  0.84550432  0.36491805     0.40500
C868        C  0.34813347  0.86321952  0.38124039    -0.26600
O869        O  0.39678132  0.84348798  0.31522941    -0.58500
H870        H  0.36070536  0.81103591  0.29163497     0.16100
O871        O  0.30805116  0.84661451  0.38196807    -0.59900
H872        H  0.34461454  0.87710869  0.40689330     0.14600
H873        H  0.45992011  0.87402983  0.39143981     0.46400
H874        H  0.39647125  0.86108712  0.29607483     0.41800
H875        H  0.30743760  0.82761477  0.39904861     0.45300
H876        H  0.36703488  0.93796947  0.35498260     0.36700
C877        C  0.38116455  0.58474162  0.39555924    -0.27500
C878        C  0.38643412  0.61502331  0.38046603     0.02100
C879        C  0.40970465  0.62643194  0.38244723     0.30200
C880        C  0.42720335  0.60768815  0.39969082    -0.19300
C881        C  0.42200009  0.57728877  0.41495355    -0.28700
C882        C  0.39868756  0.56582104  0.41237730     0.44200
C883        C  0.36737955  0.63467173  0.36346234     0.05400
O884        O  0.41522526  0.65652937  0.36941021    -0.57200
H885        H  0.44485183  0.61732899  0.40164423     0.18300
O886        O  0.39276388  0.53611294  0.42601270    -0.63900
H887        H  0.36336698  0.57555970  0.39395194     0.16800
C888        C  0.36941224  0.64734611  0.32606347     0.29000
C889        C  0.35172625  0.66703563  0.31136082    -0.24800
C890        C  0.33119797  0.67317764  0.33259890    -0.24100
C891        C  0.32862459  0.65918474  0.36937942     0.40500
C892        C  0.34675986  0.64042583  0.38465865    -0.26600
O893        O  0.38832637  0.63995862  0.30320536    -0.58500
H894        H  0.35378637  0.67673885  0.28267954     0.16100
O895        O  0.30851224  0.66353474  0.39062347    -0.59900
H896        H  0.34475680  0.63041817  0.41325510     0.14600
H897        H  0.39426424  0.52165005  0.40356180     0.46400
H898        H  0.38417921  0.61939478  0.29078467     0.41800
H899        H  0.31110396  0.68357512  0.40521003     0.45300
H900        H  0.42579424  0.65325203  0.34702346     0.36700
C901        C  0.13423611  0.83627213  0.36012185    -0.27500
C902        C  0.13937695  0.86761755  0.37172649     0.02100
C903        C  0.16215672  0.87982156  0.36594066     0.30200
C904        C  0.17942577  0.86077965  0.34876299    -0.19300
C905        C  0.17427986  0.82951091  0.33656279    -0.28700
C906        C  0.15142021  0.81729441  0.34243818     0.44200
C907        C  0.12069179  0.88779798  0.38874118     0.05400
O908        O  0.16757501  0.91058901  0.37624312    -0.57200
H909        H  0.19676852  0.87085178  0.34414996     0.18300
O910        O  0.14588360  0.78655031  0.33216985    -0.63900
H911        H  0.11680311  0.82651114  0.36475735     0.16800
C912        C  0.10020472  0.89493080  0.36779256     0.29000
C913        C  0.08275111  0.91429387  0.38399195    -0.24800
C914        C  0.08531350  0.92682745  0.42120205    -0.24100
C915        C  0.10603261  0.91990088  0.44209343     0.40500
C916        C  0.12345827  0.90039083  0.42583632    -0.26600
O917        O  0.09749936  0.88397038  0.33089186    -0.58500
H918        H  0.06716403  0.91961839  0.36724241     0.16100
O919        O  0.10896292  0.93078677  0.47899558    -0.59900
H920        H  0.13910298  0.89484003  0.44235381     0.14600
H921        H  0.13830164  0.78838434  0.30657650     0.46400
H922        H  0.08597954  0.86623101  0.33277948     0.41800
H923        H  0.11970670  0.94937707  0.47675148     0.45300
H924        H  0.16298459  0.92392297  0.35384617     0.36700
C925        C  0.36790623  0.85672442  0.16692145    -0.27500
C926        C  0.36549504  0.86711003  0.12877613     0.02100
C927        C  0.34563939  0.85762933  0.10745311     0.30200
C928        C  0.32864703  0.83775941  0.12443829    -0.19300
C929        C  0.33116214  0.82722349  0.16266294    -0.28700
C930        C  0.35089821  0.83720442  0.18392198     0.44200
C931        C  0.38449707  0.88651957  0.11137913     0.05400
O932        O  0.34328560  0.86645633  0.06959762    -0.57200
H933        H  0.31354559  0.83043519  0.10762817     0.18300
O934        O  0.35338697  0.82889286  0.22181416    -0.63900
H935        H  0.38298279  0.86410300  0.18376934     0.16800
C936        C  0.38009598  0.91682220  0.09526067     0.29000
C937        C  0.39853237  0.93425732  0.07874889    -0.24800
C938        C  0.42169843  0.92230432  0.07889336    -0.24100
C939        C  0.42608741  0.89222300  0.09605368     0.40500
C940        C  0.40757948  0.87471367  0.11202569    -0.26600
O941        O  0.35797666  0.92992736  0.09625861    -0.58500
H942        H  0.39469117  0.95749330  0.06642157     0.16100
O943        O  0.44832097  0.87947960  0.09733688    -0.59900
H944        H  0.41124415  0.85156111  0.12473844     0.14600
H945        H  0.34340295  0.84428233  0.23615245     0.46400
H946        H  0.35712473  0.94154045  0.12107027     0.41800
H947        H  0.45043085  0.86845092  0.07232940     0.45300
H948        H  0.33000407  0.88184373  0.06903890     0.36700
O949        O  0.46563148  0.93307319  0.92764145    -0.75200
O950        O  0.43702977  0.96344046  0.95558210    -0.54100
C951        C  0.44396631  0.94027748  0.93400388     0.78500
O952        O  0.04164683  0.93736384  0.57442858    -0.59800
O953        O  0.06948296  0.96766431  0.54427628    -0.52800
C954        C  0.06310681  0.94504667  0.56715331     0.70600
O955        O  0.46228772  0.93604294  0.57048533    -0.74300
O956        O  0.43492465  0.96517476  0.53790885    -0.54900
C957        C  0.44089469  0.94275843  0.56123973     0.76600
O958        O  0.04434233  0.93956938  0.92644976    -0.59500
O959        O  0.07072501  0.96800020  0.96201266    -0.52600
C960        C  0.06544605  0.94652959  0.93707355     0.73200
Zr961      Zr  0.50426221  0.95477460  0.94249158     2.54700
O962        O  0.50703792  0.89696734  0.93588845    -0.80100
O963        O  0.00307533  0.96472759  0.87251273    -0.93500
Zr964      Zr  0.50215602  0.95512379  0.55763002     2.64700
O965        O  0.50165069  0.89697927  0.56107054    -0.98400
O966        O  0.00174150  0.95464294  0.62588451    -0.80500
O967        O  0.48048288  0.95281749  0.99854210    -0.83800
O968        O  0.02549384  0.95407184  0.99977413    -2.18600
O969        O  0.04205634  0.56647007  0.92662421    -0.67200
O970        O  0.06975595  0.53882400  0.96040657    -0.51800
C971        C  0.06352045  0.56026612  0.93578337     0.71500
O972        O  0.46102901  0.56546619  0.57316393    -0.60100
O973        O  0.43433441  0.53633441  0.53905066    -0.52100
C974        C  0.43986203  0.55848503  0.56309526     0.73300
O975        O  0.03945068  0.56559930  0.57811372    -0.71500
O976        O  0.06774009  0.53838527  0.54493447    -0.50200
C977        C  0.06102734  0.55939392  0.56962859     0.74700
O978        O  0.46171015  0.56541789  0.92471016    -0.66900
O979        O  0.43430531  0.53579380  0.95655684    -0.54100
C980        C  0.44027154  0.55785175  0.93264169     0.73100
Zr981      Zr  0.00231432  0.54994211  0.94391229     2.77500
O982        O  0.00166281  0.60813333  0.94613648    -0.97600
O983        O  0.00181079  0.54963179  0.87389333    -0.78400
Zr984      Zr  0.00053922  0.54746457  0.55836147     2.70100
O985        O  0.00050114  0.60523542  0.56682605    -0.79700
O986        O  0.99831578  0.53940420  0.62766303    -0.98800
Zr987      Zr  0.45702053  0.50013109  0.49886425     2.21500
Zr988      Zr  0.04723811  0.00265314  0.00220091     2.11100
O989        O  0.02395682  0.54991559  0.50189566    -2.47500
O990        O  0.47874167  0.54851737  0.50100954    -0.79500
O991        O  0.02603147  0.00338678  0.94322998    -0.71700
O992        O  0.47835151  0.49975407  0.55794835    -2.32600
O993        O  0.47982038  0.50189540  0.94024038    -2.28800
O994        O  0.02471881  0.00119990  0.55914233    -0.73400
H995        H  0.03602159  0.93618594  0.50007068     0.78600
H996        H  0.46778088  0.49929494  0.57974976     0.79700
H997        H  0.03393865  0.56914020  0.00268094     0.81900
H998        H  0.46990869  0.50168819  0.91766335     0.79500
H999        H  0.50714204  0.94020553  0.63728095     0.42500
H1000       H  0.01261798  0.52698797  0.63408128     0.41500
H1001       H  0.49204217  0.61212445  0.53764942     0.41200
H1002       H  0.01583139  0.61413005  0.96098752     0.39100
H1003       H  0.00417385  0.57225990  0.86644672     0.42200
H1004       H  0.48857244  0.95812616  0.86465235     0.37000
H1005       H  0.50713166  0.88889681  0.96268510     0.43100
H1006       H  0.01656830  0.88991405  0.53739014     0.39600
H1007       H  0.00515577  0.61500313  0.91946845     0.44500
H1008       H  0.51387950  0.94333149  0.86322936     0.43200
H1009       H  0.50742782  0.89176265  0.58719834     0.43300
H1010       H  0.00122835  0.56086808  0.63867183     0.43700
O1011       O  0.29120586  0.81700019  0.67382593    -0.75200
O1012       O  0.31883086  0.78802628  0.70635159    -0.54100
C1013       C  0.31259425  0.81003833  0.68252212     0.78500
O1014       O  0.21405224  0.81707412  0.82563947    -0.59800
O1015       O  0.18606053  0.78940235  0.79266778    -0.52800
C1016       C  0.19250830  0.81056536  0.81727693     0.70600
O1017       O  0.29359202  0.81619392  0.82226626    -0.74300
O1018       O  0.32022949  0.78643765  0.78881278    -0.54900
C1019       C  0.31482898  0.80822319  0.81339337     0.76600
O1020       O  0.21261569  0.81581674  0.67361972    -0.59500
O1021       O  0.18530887  0.78891970  0.70909964    -0.52600
C1022       C  0.19129662  0.80985636  0.68375137     0.73200
Zr1023     Zr  0.25202132  0.79837322  0.69087807     2.54700
O1024       O  0.25035705  0.85630609  0.68490242    -0.80100
O1025       O  0.25345208  0.79121280  0.62144959    -0.93500
Zr1026     Zr  0.25342426  0.80058068  0.80571228     2.64700
O1027       O  0.25393805  0.85877967  0.80340024    -0.98400
O1028       O  0.25474238  0.79931130  0.87577971    -0.80500
O1029       O  0.27528864  0.80006055  0.74748217    -0.83800
O1030       O  0.23025728  0.80065790  0.74902612    -2.18600
O1031       O  0.21079929  0.68623621  0.67972408    -0.67200
O1032       O  0.18394522  0.71620396  0.71240341    -0.51800
C1033       C  0.18951425  0.69326547  0.68942504     0.71500
O1034       O  0.29156263  0.68755209  0.82319317    -0.60100
O1035       O  0.31895048  0.71512873  0.78838804    -0.50700
C1036       C  0.31287276  0.69383682  0.81322361     0.73300
O1037       O  0.21249782  0.69054063  0.82732098    -0.71500
O1038       O  0.18512560  0.71822394  0.79276405    -0.50200
C1039       C  0.19113067  0.69712044  0.81782476     0.74700
O1040       O  0.29008179  0.68523436  0.67622097    -0.66900
O1041       O  0.31830390  0.71464815  0.70647652    -0.54100
C1042       C  0.31166315  0.69216997  0.68365981     0.73100
Zr1043     Zr  0.25090419  0.70408818  0.69341824     2.77500
O1044       O  0.25204682  0.64585045  0.69428080    -0.97600
O1045       O  0.24921506  0.70744785  0.62351812    -0.78400
Zr1046     Zr  0.25215043  0.70634475  0.80804613     2.70100
O1047       O  0.25045517  0.64827496  0.80932329    -0.79700
O1048       O  0.25429760  0.70988103  0.87784567    -0.98800
Zr1049     Zr  0.29723931  0.75165967  0.74782781     2.21500
Zr1050     Zr  0.20711424  0.75319501  0.75071109     2.11100
O1051       O  0.22916116  0.70488245  0.75148832    -2.47500
O1052       O  0.27408876  0.70440978  0.75004314    -0.79500
O1053       O  0.22827578  0.75173989  0.69158423    -0.71700
O1054       O  0.27584972  0.75289110  0.80693071    -2.32600
O1055       O  0.27456185  0.75077512  0.69028804    -2.28800
O1056       O  0.22962231  0.75400565  0.80856997    -0.73400
H1057       H  0.22040823  0.81943141  0.74889016     0.78600
H1058       H  0.28630216  0.75284046  0.82880579     0.79700
H1059       H  0.21905347  0.68640376  0.75256377     0.81900
H1060       H  0.28460129  0.75033077  0.66787008     0.79500
H1061       H  0.24525307  0.81791797  0.88411982     0.42500
H1062       H  0.24216464  0.72582801  0.88487229     0.41500
H1063       H  0.26002146  0.64155919  0.78691608     0.41200
H1064       H  0.23942892  0.63944540  0.71238498     0.39100
H1065       H  0.26258559  0.72136229  0.61620278     0.42200
H1066       H  0.25677646  0.81282120  0.61117463     0.37000
H1067       H  0.25101093  0.86412658  0.71174433     0.43100
H1068       H  0.23883339  0.86486496  0.79124495     0.39600
H1069       H  0.24624166  0.63933888  0.66862772     0.44500
H1070       H  0.23695323  0.78690141  0.61389990     0.43200
H1071       H  0.25225861  0.86547710  0.83057216     0.43300
H1072       H  0.24790014  0.68922843  0.88712076     0.43700
C1073       C  0.09469558  0.60805164  0.64352490    -0.27500
C1074       C  0.11459574  0.61723073  0.62220553     0.02100
C1075       C  0.11673049  0.60707848  0.58370121     0.30200
C1076       C  0.09940386  0.58770436  0.56735078    -0.19300
C1077       C  0.07945754  0.57862976  0.58855678    -0.28700
C1078       C  0.07714959  0.58902768  0.62695996     0.44200
C1079       C  0.13338839  0.63657941  0.64051627     0.05400
O1080       O  0.13558706  0.61624128  0.56162195    -0.57200
H1081       H  0.10130694  0.58038419  0.53760924     0.18300
O1082       O  0.05798726  0.58047573  0.64870316    -0.63900
H1083       H  0.09291677  0.61528598  0.67329378     0.16800
C1084       C  0.12847751  0.66615176  0.65810110     0.29000
C1085       C  0.14677148  0.68422835  0.67425365    -0.24800
C1086       C  0.17019969  0.67325075  0.67325638    -0.24100
C1087       C  0.17480284  0.64293380  0.65681492     0.40500
C1088       C  0.15657263  0.62516660  0.64041270    -0.26600
O1089       O  0.10605892  0.67833740  0.65781028    -0.58500
H1090       H  0.14260740  0.70719767  0.68691193     0.16100
O1091       O  0.19700820  0.63008848  0.65684511    -0.59900
H1092       H  0.16054916  0.60210334  0.62780091     0.14600
H1093       H  0.06170436  0.55887442  0.65882415     0.46400
H1094       H  0.10000137  0.67511110  0.68430444     0.41800
H1095       H  0.19875660  0.61992147  0.68247982     0.45300
H1096       H  0.13149533  0.63782882  0.55183732     0.36700
C1097       C  0.15684041  0.64513549  0.88780480    -0.27500
C1098       C  0.13653551  0.63833659  0.86637297     0.02100
C1099       C  0.13395683  0.65198710  0.82950395     0.30200
C1100       C  0.15157177  0.67178654  0.81457832    -0.19300
C1101       C  0.17212617  0.67805225  0.83569593    -0.28700
C1102       C  0.17458849  0.66465226  0.87273772     0.44200
C1103       C  0.11795575  0.61762342  0.88313849     0.05400
O1104       O  0.11445088  0.64576485  0.80755938    -0.57200
H1105       H  0.14941356  0.68152226  0.78587571     0.18300
O1106       O  0.19422405  0.67043056  0.89455621    -0.63900
H1107       H  0.15886861  0.63546629  0.91653811     0.16800
C1108       C  0.12324628  0.58717675  0.89828389     0.29000
C1109       C  0.10542815  0.56853634  0.91504347    -0.24800
C1110       C  0.08215325  0.57985588  0.91709617    -0.24100
C1111       C  0.07701580  0.61046423  0.90185628     0.40500
C1112       C  0.09476701  0.62887061  0.88500331    -0.26600
O1113       O  0.14561767  0.57501694  0.89555816    -0.58500
H1114       H  0.10984899  0.54510286  0.92624601     0.16100
O1115       O  0.05480242  0.62315090  0.90407125    -0.59900
H1116       H  0.09046693  0.65245828  0.87412738     0.14600
H1117       H  0.19215902  0.69242329  0.90464174     0.46400
H1118       H  0.15211421  0.57602078  0.92199458     0.41800
H1119       H  0.05410561  0.63385710  0.92948318     0.45300
H1120       H  0.11804148  0.62551070  0.79396743     0.36700
C1121       C  0.09553857  0.87560152  0.61295402    -0.27500
C1122       C  0.11763427  0.88913488  0.62007022     0.02100
C1123       C  0.12169911  0.92136864  0.61025775     0.30200
C1124       C  0.10381522  0.93945972  0.59319503    -0.19300
C1125       C  0.08166927  0.92588245  0.58594824    -0.28700
C1126       C  0.07768137  0.89357130  0.59591312     0.44200
C1127       C  0.13648128  0.86899336  0.63654363     0.05400
O1128       O  0.14310541  0.93537627  0.61707346    -0.57200
H1129       H  0.10724731  0.96420197  0.58579637     0.18300
O1130       O  0.05665357  0.87890568  0.58806058    -0.63900
H1131       H  0.09230412  0.85068333  0.61972843     0.16800
C1132       C  0.13291348  0.85189023  0.67094318     0.29000
C1133       C  0.15067724  0.83214522  0.68532539    -0.24800
C1134       C  0.17238645  0.82938482  0.66617435    -0.24100
C1135       C  0.17594572  0.84671911  0.63170052     0.40500
C1136       C  0.15797964  0.86607111  0.61705992    -0.26600
O1137       O  0.11218073  0.85456298  0.69093587    -0.58500
H1138       H  0.14757496  0.81955832  0.71212810     0.16100
O1139       O  0.19661799  0.84430367  0.61147682    -0.59900
H1140       H  0.16079140  0.87866996  0.59017285     0.14600
H1141       H  0.05778665  0.87225753  0.56074029     0.46400
H1142       H  0.11505045  0.87140023  0.71042553     0.41800
H1143       H  0.20561479  0.86387777  0.61797567     0.45300
H1144       H  0.14314364  0.94041510  0.64493973     0.36700
C1145       C  0.34340743  0.63688218  0.61401387    -0.27500
C1146       C  0.36485388  0.63201124  0.63306508     0.02100
C1147       C  0.36874819  0.64718148  0.66866867     0.30200
C1148       C  0.35163569  0.66748673  0.68412792    -0.19300
C1149       C  0.33007116  0.67223761  0.66528118    -0.28700
C1150       C  0.32608216  0.65670682  0.62981867     0.44200
C1151       C  0.38367091  0.61282615  0.61459241     0.05400
O1152       O  0.38919295  0.64213578  0.68873712    -0.57200
H1153       H  0.35507094  0.67898847  0.71140207     0.18300
O1154       O  0.30550679  0.66114827  0.60991788    -0.63900
H1155       H  0.34028229  0.62591047  0.58628782     0.16800
C1156       C  0.37962832  0.58149692  0.60128749     0.29000
C1157       C  0.39805631  0.56399429  0.58465313    -0.24800
C1158       C  0.42055528  0.57749196  0.58038696    -0.24100
C1159       C  0.42425398  0.60931580  0.59247591     0.40500
C1160       C  0.40597890  0.62651694  0.60958834    -0.26600
O1161       O  0.35799641  0.56739971  0.60566190    -0.58500
H1162       H  0.39476871  0.53966626  0.57544925     0.16100
O1163       O  0.44552731  0.62415959  0.58711141    -0.59900
H1164       H  0.40916645  0.65094365  0.61852786     0.14600
H1165       H  0.30756197  0.68165830  0.59594884     0.46400
H1166       H  0.35091029  0.56742742  0.57960019     0.41800
H1167       H  0.44488111  0.63307863  0.56066832     0.45300
H1168       H  0.38644085  0.62229831  0.70375546     0.36700
C1169       C  0.41240392  0.87070445  0.88632784    -0.27500
C1170       C  0.39020923  0.88405399  0.87886663     0.02100
C1171       C  0.38598298  0.91618160  0.88914788     0.30200
C1172       C  0.40355714  0.93404498  0.90722261    -0.19300
C1173       C  0.42574311  0.92066561  0.91482197    -0.28700
C1174       C  0.43012935  0.88870640  0.90385736     0.44200
C1175       C  0.37125998  0.86378982  0.86240738     0.05400
O1176       O  0.36467674  0.93036907  0.88186946    -0.57200
H1177       H  0.39983388  0.95860489  0.91500839     0.18300
O1178       O  0.45118793  0.87418839  0.91211211    -0.63900
H1179       H  0.41585541  0.84586149  0.87958864     0.16800
C1180       C  0.37524131  0.84411265  0.83014532     0.29000
C1181       C  0.35709344  0.82493552  0.81584382    -0.24800
C1182       C  0.33442474  0.82587883  0.83210486    -0.24100
C1183       C  0.33076493  0.84466992  0.86532465     0.40500
C1184       C  0.34905302  0.86326683  0.88010930    -0.26600
O1185       O  0.39663556  0.84390199  0.81181970    -0.58500
H1186       H  0.36069954  0.80994408  0.79119676     0.16100
O1187       O  0.30947598  0.84494187  0.88395037    -0.59900
H1188       H  0.34587782  0.87717448  0.90586289     0.14600
H1189       H  0.45998984  0.87391222  0.88745618     0.46400
H1190       H  0.39539243  0.86049608  0.79150377     0.41800
H1191       H  0.30939081  0.82530990  0.89999563     0.45300
H1192       H  0.36595565  0.93887692  0.85529951     0.36700
C1193       C  0.38043132  0.58569958  0.89553340    -0.27500
C1194       C  0.38627143  0.61536416  0.87911266     0.02100
C1195       C  0.40985248  0.62555678  0.87967451     0.30200
C1196       C  0.42712184  0.60630036  0.89659000    -0.19300
C1197       C  0.42140820  0.57665614  0.91337694    -0.28700
C1198       C  0.39772933  0.56630606  0.91236510     0.44200
C1199       C  0.36757029  0.63577369  0.86221975     0.05400
O1200       O  0.41593431  0.65521305  0.86590083    -0.57200
H1201       H  0.44502494  0.61515470  0.89734860     0.18300
O1202       O  0.39115957  0.53747437  0.92787994    -0.63900
H1203       H  0.36235032  0.57748829  0.89516519     0.16800
C1204       C  0.36931114  0.64726976  0.82418220     0.29000
C1205       C  0.35172066  0.66696198  0.80916463    -0.24800
C1206       C  0.33173921  0.67463738  0.83098898    -0.24100
C1207       C  0.32978721  0.66286221  0.86891122     0.40500
C1208       C  0.34767403  0.64369064  0.88426876    -0.26600
O1209       O  0.38783583  0.63875264  0.80104553    -0.58500
H1210       H  0.35337480  0.67542615  0.77985257     0.16100
O1211       O  0.31057326  0.67001432  0.89126289    -0.59900
H1212       H  0.34607221  0.63508554  0.91357672     0.14600
H1213       H  0.39575991  0.52125802  0.90848460     0.46400
H1214       H  0.38312599  0.61818174  0.78920007     0.41800
H1215       H  0.31417891  0.69101471  0.90306008     0.45300
H1216       H  0.42602072  0.65118853  0.84310231     0.36700
C1217       C  0.13345792  0.83756156  0.85751547    -0.27500
C1218       C  0.13890484  0.86842097  0.87051731     0.02100
C1219       C  0.16211117  0.87974225  0.86689142     0.30200
C1220       C  0.17942601  0.86037311  0.85032502    -0.19300
C1221       C  0.17395880  0.82965122  0.83657773    -0.28700
C1222       C  0.15067635  0.81830667  0.84037985     0.44200
C1223       C  0.12021032  0.88878722  0.88733023     0.05400
O1224       O  0.16795471  0.90995909  0.87879920    -0.57200
H1225       H  0.19708445  0.86983010  0.84735521     0.18300
O1226       O  0.14466506  0.78815085  0.82846158    -0.63900
H1227       H  0.11575116  0.82833318  0.86068472     0.16800
C1228       C  0.09959404  0.89570835  0.86652141     0.29000
C1229       C  0.08214775  0.91505119  0.88278531    -0.24800
C1230       C  0.08484664  0.92776481  0.91988059    -0.24100
C1231       C  0.10558211  0.92093956  0.94067180     0.40500
C1232       C  0.12298776  0.90145983  0.92440301    -0.26600
O1233       O  0.09673013  0.88456417  0.82972687    -0.58500
H1234       H  0.06645026  0.92017714  0.86621317     0.16100
O1235       O  0.10848846  0.93175110  0.97760820    -0.59900
H1236       H  0.13860502  0.89590290  0.94097798     0.14600
H1237       H  0.13766185  0.79108133  0.80257123     0.46400
H1238       H  0.08524556  0.86680177  0.83186785     0.41800
H1239       H  0.11843207  0.95113656  0.97525172     0.45300
H1240       H  0.16498161  0.92394324  0.85624491     0.36700
C1241       C  0.36818605  0.85820974  0.66727324    -0.27500
C1242       C  0.36589542  0.86751227  0.62864845     0.02100
C1243       C  0.34610986  0.85739264  0.60757012     0.30200
C1244       C  0.32892461  0.83841214  0.62535718    -0.19300
C1245       C  0.33123496  0.82919608  0.66402352    -0.28700
C1246       C  0.35098479  0.83945271  0.68501903     0.44200
C1247       C  0.38474440  0.88691063  0.61072185     0.05400
O1248       O  0.34407185  0.86455716  0.56916594    -0.57200
H1249       H  0.31388635  0.83055645  0.60874141     0.18300
O1250       O  0.35331618  0.83210582  0.72323759    -0.63900
H1251       H  0.38324530  0.86595180  0.68392621     0.16800
C1252       C  0.37992977  0.91620673  0.59228766     0.29000
C1253       C  0.39831319  0.93405186  0.57627006    -0.24800
C1254       C  0.42176371  0.92331357  0.57853916    -0.24100
C1255       C  0.42644698  0.89387776  0.59702612     0.40500
C1256       C  0.40806644  0.87619825  0.61313112    -0.26600
O1257       O  0.35740654  0.92788616  0.59022504    -0.58500
H1258       H  0.39414840  0.95658094  0.56241900     0.16100
O1259       O  0.44886630  0.88187809  0.59935516    -0.59900
H1260       H  0.41203365  0.85368587  0.62719389     0.14600
H1261       H  0.34307967  0.84760881  0.73690786     0.46400
H1262       H  0.35494535  0.93969761  0.61461223     0.41800
H1263       H  0.45064129  0.86789810  0.57651287     0.45300
H1264       H  0.33021541  0.87888715  0.56709925     0.36700
O1265       O  0.96524528  0.43541437  0.42454892    -0.75200
O1266       O  0.93659955  0.46366111  0.45560540    -0.54100
C1267       C  0.94361007  0.44163328  0.43242388     0.78500
O1268       O  0.54168412  0.43690172  0.07321702    -0.59800
O1269       O  0.56924762  0.46863018  0.04450823    -0.52800
C1270       C  0.56311898  0.44520388  0.06654465     0.70600
O1271       O  0.96176916  0.43526996  0.07011670    -0.74300
O1272       O  0.93451322  0.46434184  0.03725591    -0.54900
C1273       C  0.94036874  0.44203509  0.06082199     0.76600
O1274       O  0.54444978  0.43892754  0.42798634    -0.59500
O1275       O  0.57092701  0.46797228  0.46257555    -0.52600
C1276       C  0.56559800  0.44612922  0.43820200     0.73200
Zr1277     Zr  0.00400537  0.45520596  0.44163724     2.54700
O1278       O  0.00515796  0.39705146  0.44041141    -0.80100
O1279       O  0.50428724  0.46076684  0.37283331    -0.93500
Zr1280     Zr  0.00186960  0.45364801  0.05636654     2.64700
O1281       O  0.00043991  0.39547860  0.05753065    -0.98400
O1282       O  0.50091368  0.45475614  0.12540706    -0.80500
O1283       O  0.98006636  0.45339207  0.49753309    -0.83800
O1284       O  0.52553433  0.45399387  0.50056663    -2.18600
O1285       O  0.54174442  0.06757175  0.42656259    -0.67200
O1286       O  0.56945823  0.03942998  0.45984389    -0.51800
C1287       C  0.56317384  0.06113373  0.43556085     0.71500
O1288       O  0.96079132  0.06502068  0.07184001    -0.60100
O1289       O  0.93393592  0.03609138  0.03789352    -0.52100
C1290       C  0.93960629  0.05830077  0.06175902     0.73300
O1291       O  0.53962580  0.06500363  0.07987520    -0.71500
O1292       O  0.56773818  0.03932270  0.04459020    -0.50200
C1293       C  0.56116986  0.05952643  0.07035286     0.74700
O1294       O  0.96306905  0.06660433  0.42556012    -0.66900
O1295       O  0.93558345  0.03652159  0.45673344    -0.54100
C1296       C  0.94162306  0.05890243  0.43329639     0.73100
Zr1297     Zr  0.50235066  0.04989463  0.44352374     2.77500
O1298       O  0.50060970  0.10801631  0.44718630    -0.97600
O1299       O  0.50355594  0.05002538  0.37355296    -0.78400
Zr1300     Zr  0.50074395  0.04785623  0.05829986     2.70100
O1301       O  0.50202400  0.10602346  0.05947471    -0.79700
O1302       O  0.49789424  0.04298348  0.12801969    -0.98800
Zr1303     Zr  0.95701368  0.00007230  0.99815740     2.21500
Zr1304     Zr  0.54720090  0.50275158  0.50196425     2.11100
O1305       O  0.52403863  0.05006707  0.00178437    -2.47500
O1306       O  0.97870931  0.04849693  0.00114461    -0.79500
O1307       O  0.52596765  0.50303605  0.44287409    -0.71700
O1308       O  0.97816201  0.99933954  0.05741069    -2.32600
O1309       O  0.98047358  0.00218619  0.44089349    -2.28800
O1310       O  0.52438805  0.50160192  0.05869099    -0.73400
H1311       H  0.53598655  0.43660075  0.99954700     0.78600
H1312       H  0.96754752  0.99867167  0.07915038     0.79700
H1313       H  0.53416643  0.06974887  0.50189112     0.81900
H1314       H  0.97061180  0.00226678  0.41825628     0.79500
H1315       H  0.98875640  0.44257681  0.13453517     0.42500
H1316       H  0.49164856  0.06387381  0.13663530     0.41500
H1317       H  0.99699342  0.11267293  0.03805755     0.41200
H1318       H  0.51485692  0.11431738  0.46165756     0.39100
H1319       H  0.50239785  0.07288585  0.36635034     0.42200
H1320       H  0.01849155  0.47317693  0.36604465     0.37000
H1321       H  0.01265744  0.39091747  0.46503140     0.43100
H1322       H  0.51581851  0.38963910  0.03748264     0.39600
H1323       H  0.50356674  0.11545396  0.42056390     0.44500
H1324       H  0.99100299  0.47078527  0.36451504     0.43200
H1325       H  0.00598277  0.38951445  0.08356720     0.43300
H1326       H  0.48484369  0.02777355  0.13266119     0.43700
O1327       O  0.79125761  0.31445777  0.17194786    -0.75200
O1328       O  0.81886172  0.28730315  0.20677355    -0.54100
C1329       C  0.81257315  0.30838802  0.18175539     0.78500
O1330       O  0.71418918  0.31890074  0.32335415    -0.59800
O1331       O  0.68623113  0.28938774  0.29266941    -0.52800
C1332       C  0.69262933  0.31148357  0.31612460     0.70600
O1333       O  0.79367403  0.31717948  0.32067236    -0.74300
O1334       O  0.82047279  0.28594381  0.28959432    -0.54900
C1335       C  0.81494257  0.30867487  0.31281632     0.76600
O1336       O  0.71295983  0.31568630  0.17342241    -0.59500
O1337       O  0.68563261  0.28861446  0.20871926    -0.52600
C1338       C  0.69162749  0.30957130  0.18337915     0.73200
Zr1339     Zr  0.75218830  0.29734424  0.19051641     2.54700
O1340       O  0.75297327  0.35543759  0.18657771    -0.80100
O1341       O  0.75173776  0.29090591  0.12095035    -0.93500
Zr1342     Zr  0.75353760  0.30111569  0.30480255     2.64700
O1343       O  0.75559873  0.35919387  0.30073280    -0.98400
O1344       O  0.75357023  0.30061661  0.37483115    -0.80500
O1345       O  0.77553048  0.29924833  0.24695740    -0.83800
O1346       O  0.73024994  0.30054470  0.24830191    -2.18600
O1347       O  0.71139617  0.18715633  0.17834967    -0.67200
O1348       O  0.68433971  0.21683513  0.21102659    -0.51800
C1349       C  0.69005809  0.19448213  0.18731900     0.71500
O1350       O  0.79151157  0.18685041  0.32438661    -0.60100
O1351       O  0.81904390  0.21396724  0.28942367    -0.50700
C1352       C  0.81286405  0.19267884  0.31423438     0.73300
O1353       O  0.71276828  0.19030932  0.32790722    -0.71500
O1354       O  0.68544890  0.21840369  0.29378092    -0.50200
C1355       C  0.69140785  0.19717161  0.31876968     0.74700
O1356       O  0.79090071  0.18548404  0.17670268    -0.66900
O1357       O  0.81904039  0.21386590  0.20851360    -0.54100
C1358       C  0.81247733  0.19201554  0.18483965     0.73100
Zr1359     Zr  0.75145795  0.20319601  0.19477890     2.77500
O1360       O  0.75145333  0.14503585  0.19817656    -0.97600
O1361       O  0.75055981  0.20416313  0.12479797    -0.78400
Zr1362     Zr  0.75232726  0.20687857  0.30949800     2.70100
O1363       O  0.75108755  0.14909153  0.31714622    -0.79700
O1364       O  0.75397345  0.21550450  0.37872882    -0.98800
Zr1365     Zr  0.79755927  0.25096752  0.24879943     2.21500
Zr1366     Zr  0.70727263  0.25298667  0.25082213     2.11100
O1367       O  0.72944232  0.20470767  0.25262172    -2.47500
O1368       O  0.77440158  0.20374019  0.25165884    -0.79500
O1369       O  0.72867143  0.25065643  0.19201011    -0.71700
O1370       O  0.77602389  0.25338323  0.30761460    -2.32600
O1371       O  0.77495308  0.24984517  0.19109459    -2.28800
O1372       O  0.72979444  0.25454939  0.30856684    -0.73400
H1373       H  0.72043124  0.31934699  0.24780205     0.78600
H1374       H  0.78646006  0.25360519  0.32951488     0.79700
H1375       H  0.71926815  0.18628634  0.25359720     0.81900
H1376       H  0.78496204  0.24911951  0.16864008     0.79500
H1377       H  0.76402454  0.28261719  0.38193827     0.42500
H1378       H  0.73814832  0.22355341  0.38564522     0.41500
H1379       H  0.75751705  0.14072348  0.29266010     0.41200
H1380       H  0.73704852  0.13948811  0.21277592     0.39100
H1381       H  0.75377615  0.18179972  0.11710080     0.42200
H1382       H  0.75162055  0.31302993  0.11081069     0.37000
H1383       H  0.76383053  0.36206242  0.20733963     0.43100
H1384       H  0.74272474  0.36530940  0.28301913     0.39600
H1385       H  0.74819795  0.13798006  0.17154068     0.44500
H1386       H  0.73583545  0.28253959  0.11510330     0.43200
H1387       H  0.75032960  0.36676469  0.32630759     0.43300
H1388       H  0.75461651  0.19370922  0.38989819     0.43700
C1389       C  0.59519391  0.10963871  0.14283234    -0.27500
C1390       C  0.61482827  0.11875167  0.12077264     0.02100
C1391       C  0.61689577  0.10756312  0.08275559     0.30200
C1392       C  0.59956678  0.08775680  0.06722924    -0.19300
C1393       C  0.57976375  0.07886852  0.08894165    -0.28700
C1394       C  0.57779086  0.08966996  0.12727353     0.44200
C1395       C  0.63375734  0.13857426  0.13789709     0.05400
O1396       O  0.63577542  0.11608413  0.06036829    -0.57200
H1397       H  0.60139329  0.07991357  0.03767590     0.18300
O1398       O  0.55922429  0.08041467  0.14997140    -0.63900
H1399       H  0.59360814  0.11752961  0.17239508     0.16800
C1400       C  0.62938537  0.16958463  0.15189588     0.29000
C1401       C  0.64780608  0.18764389  0.16772950    -0.24800
C1402       C  0.67084141  0.17531428  0.16959752    -0.24100
C1403       C  0.67509867  0.14427242  0.15503270     0.40500
C1404       C  0.65668478  0.12632193  0.13948654    -0.26600
O1405       O  0.60744594  0.18298083  0.14851998    -0.58500
H1406       H  0.64407330  0.21152002  0.17813158     0.16100
O1407       O  0.69714657  0.13094916  0.15607635    -0.59900
H1408       H  0.66031502  0.10249222  0.12879914     0.14600
H1409       H  0.56340938  0.05875279  0.15940296     0.46400
H1410       H  0.60042243  0.18164596  0.17460368     0.41800
H1411       H  0.69779178  0.11896730  0.18069480     0.45300
H1412       H  0.63130956  0.13679831  0.04850428     0.36700
C1413       C  0.65767601  0.14284672  0.38720464    -0.27500
C1414       C  0.63640070  0.13899874  0.36731658     0.02100
C1415       C  0.63303859  0.15533631  0.33228856     0.30200
C1416       C  0.65075677  0.17506976  0.31768395    -0.19300
C1417       C  0.67233343  0.17834751  0.33700156    -0.28700
C1418       C  0.67563817  0.16207530  0.37223104     0.44200
C1419       C  0.61767059  0.11839184  0.38366409     0.05400
O1420       O  0.61271248  0.15156366  0.31156075    -0.57200
H1421       H  0.64785477  0.18693634  0.29035818     0.18300
O1422       O  0.69638416  0.16447605  0.39214164    -0.63900
H1423       H  0.66037614  0.13091712  0.41453601     0.16800
C1424       C  0.62224207  0.08655919  0.39471361     0.29000
C1425       C  0.60436178  0.06799835  0.41133502    -0.24800
C1426       C  0.58174707  0.08072722  0.41705485    -0.24100
C1427       C  0.57720129  0.11254923  0.40545791     0.40500
C1428       C  0.59505422  0.13098820  0.38896372    -0.26600
O1429       O  0.64387748  0.07307411  0.38801818    -0.58500
H1430       H  0.60816438  0.04351394  0.41946892     0.16100
O1431       O  0.55550644  0.12622664  0.41086923    -0.59900
H1432       H  0.59131851  0.15553563  0.38100010     0.14600
H1433       H  0.69408914  0.18258856  0.41012734     0.46400
H1434       H  0.65140910  0.07126368  0.41365186     0.41800
H1435       H  0.55653160  0.13731032  0.43600971     0.45300
H1436       H  0.61497333  0.13152778  0.29678730     0.36700
C1437       C  0.59585860  0.37472835  0.11055819    -0.27500
C1438       C  0.61784527  0.38817486  0.11858781     0.02100
C1439       C  0.62184405  0.42063744  0.10997410     0.30200
C1440       C  0.60395169  0.43914234  0.09326523    -0.19300
C1441       C  0.58187121  0.42566163  0.08494326    -0.28700
C1442       C  0.57806624  0.39298676  0.09357979     0.44200
C1443       C  0.63663639  0.36783271  0.13505206     0.05400
O1444       O  0.64321187  0.43443647  0.11768219    -0.57200
H1445       H  0.60733212  0.46409357  0.08693878     0.18300
O1446       O  0.55726980  0.37824576  0.08443711    -0.63900
H1447       H  0.59267284  0.34965726  0.11654409     0.16800
C1448       C  0.63331047  0.35172344  0.17020624     0.29000
C1449       C  0.65117548  0.33238100  0.18508908    -0.24800
C1450       C  0.67267184  0.32882042  0.16550603    -0.24100
C1451       C  0.67590139  0.34480222  0.13002993     0.40500
C1452       C  0.65790600  0.36400603  0.11507539    -0.26600
O1453       O  0.61274081  0.35504712  0.19049232    -0.58500
H1454       H  0.64831941  0.32068727  0.21254544     0.16100
O1455       O  0.69620045  0.34101788  0.10909697    -0.59900
H1456       H  0.66049281  0.37579455  0.08760548     0.14600
H1457       H  0.55949821  0.37015700  0.05786945     0.46400
H1458       H  0.61557891  0.37301985  0.20846793     0.41800
H1459       H  0.70584830  0.36017000  0.11486808     0.45300
H1460       H  0.64246066  0.44066093  0.14516925     0.36700
C1461       C  0.84476234  0.13861656  0.11385190    -0.27500
C1462       C  0.86594598  0.13294409  0.13333384     0.02100
C1463       C  0.86956821  0.14702239  0.16963164     0.30200
C1464       C  0.85237564  0.16704164  0.18542326    -0.19300
C1465       C  0.83099108  0.17244027  0.16621244    -0.28700
C1466       C  0.82730871  0.15796157  0.13004522     0.44200
C1467       C  0.88454685  0.11351344  0.11479909     0.05400
O1468       O  0.88971869  0.14103126  0.19012670    -0.57200
H1469       H  0.85556830  0.17773448  0.21323749     0.18300
O1470       O  0.80682437  0.16271957  0.11000498    -0.63900
H1471       H  0.84186470  0.12837741  0.08565293     0.16800
C1472       C  0.87999731  0.08240610  0.10125015     0.29000
C1473       C  0.89794927  0.06475117  0.08356143    -0.24800
C1474       C  0.92057967  0.07773116  0.07908600    -0.24100
C1475       C  0.92489051  0.10922938  0.09196071     0.40500
C1476       C  0.90699566  0.12670183  0.10972717    -0.26600
O1477       O  0.85836599  0.06857790  0.10672149    -0.58500
H1478       H  0.89425861  0.04060893  0.07406893     0.16100
O1479       O  0.94647931  0.12336369  0.08714951    -0.59900
H1480       H  0.91059965  0.15087215  0.11923135     0.14600
H1481       H  0.80863926  0.18389418  0.09746065     0.46400
H1482       H  0.85057199  0.06935736  0.08122697     0.41800
H1483       H  0.94613840  0.13271179  0.06090598     0.45300
H1484       H  0.88671440  0.12061499  0.20383499     0.36700
C1485       C  0.91197024  0.37109291  0.38758091    -0.27500
C1486       C  0.89021085  0.38479822  0.37792019     0.02100
C1487       C  0.88645701  0.41755651  0.38524574     0.30200
C1488       C  0.90384393  0.43565648  0.40346580    -0.19300
C1489       C  0.92553928  0.42192409  0.41331227    -0.28700
C1490       C  0.92968604  0.38945004  0.40461259     0.44200
C1491       C  0.87125195  0.36453861  0.36162548     0.05400
O1492       O  0.86590781  0.43219166  0.37438064    -0.57200
H1493       H  0.90049892  0.46069250  0.40926260     0.18300
O1494       O  0.95049769  0.37497088  0.41451689    -0.63900
H1495       H  0.91510782  0.34587938  0.38262795     0.16800
C1496       C  0.87540302  0.34427671  0.33001310     0.29000
C1497       C  0.85721360  0.32527859  0.31551676    -0.24800
C1498       C  0.83441025  0.32676719  0.33121260    -0.24100
C1499       C  0.83050751  0.34638753  0.36366196     0.40500
C1500       C  0.84880525  0.36497155  0.37849227    -0.26600
O1501       O  0.89705915  0.34327590  0.31258521    -0.58500
H1502       H  0.86092760  0.30988603  0.29126389     0.16100
O1503       O  0.80895964  0.34750331  0.38143601    -0.59900
H1504       H  0.84546295  0.37966870  0.40355268     0.14600
H1505       H  0.95953380  0.37324955  0.39017530     0.46400
H1506       H  0.89634983  0.35959873  0.29188719     0.41800
H1507       H  0.80879203  0.32893565  0.39922047     0.45300
H1508       H  0.86909017  0.44095897  0.34836013     0.36700
C1509       C  0.88155806  0.08618016  0.39734899    -0.27500
C1510       C  0.88705493  0.11585366  0.38079629     0.02100
C1511       C  0.91058030  0.12641235  0.38082696     0.30200
C1512       C  0.92809979  0.10751104  0.39771013    -0.19300
C1513       C  0.92268319  0.07772659  0.41439687    -0.28700
C1514       C  0.89910968  0.06699127  0.41358160     0.44200
C1515       C  0.86803877  0.13547421  0.36363555     0.05400
O1516       O  0.91640772  0.15585301  0.36608907    -0.57200
H1517       H  0.94595632  0.11655853  0.39818195     0.18300
O1518       O  0.89293447  0.03772490  0.42829164    -0.63900
H1519       H  0.86356973  0.07759795  0.39713624     0.16800
C1520       C  0.86961996  0.14656845  0.32544963     0.29000
C1521       C  0.85178478  0.16571953  0.31018077    -0.24800
C1522       C  0.83166378  0.17311504  0.33186130    -0.24100
C1523       C  0.82969053  0.16113790  0.36971389     0.40500
C1524       C  0.84785106  0.14261117  0.38534928    -0.26600
O1525       O  0.88826444  0.13824005  0.30245530    -0.58500
H1526       H  0.85343640  0.17416147  0.28087719     0.16100
O1527       O  0.81026931  0.16765799  0.39184824    -0.59900
H1528       H  0.84626375  0.13400093  0.41466203     0.14600
H1529       H  0.89615286  0.02227977  0.40730930     0.46400
H1530       H  0.88447321  0.11656579  0.29275130     0.41800
H1531       H  0.81355792  0.18862556  0.40397343     0.45300
H1532       H  0.92663143  0.15148943  0.34354223     0.36700
C1533       C  0.63341042  0.33791451  0.35664614    -0.27500
C1534       C  0.63889409  0.36846318  0.37062579     0.02100
C1535       C  0.66216908  0.37964452  0.36777803     0.30200
C1536       C  0.67948665  0.36056591  0.35079809    -0.19300
C1537       C  0.67398261  0.33028089  0.33574642    -0.28700
C1538       C  0.65064441  0.31893554  0.33908551     0.44200
C1539       C  0.62022418  0.38867388  0.38775809     0.05400
O1540       O  0.66808515  0.40952674  0.38075593    -0.57200
H1541       H  0.69719384  0.36997142  0.34855075     0.18300
O1542       O  0.64459720  0.28900306  0.32640954    -0.63900
H1543       H  0.61567489  0.32869215  0.35940431     0.16800
C1544       C  0.59949361  0.39559009  0.36724777     0.29000
C1545       C  0.58206946  0.41469647  0.38389298    -0.24800
C1546       C  0.58497749  0.42743604  0.42090738    -0.24100
C1547       C  0.60597999  0.42103129  0.44119591     0.40500
C1548       C  0.62325984  0.40149496  0.42471341    -0.26600
O1549       O  0.59653810  0.38484148  0.33030220    -0.58500
H1550       H  0.56625569  0.41975306  0.36758769     0.16100
O1551       O  0.60936300  0.43245524  0.47775407    -0.59900
H1552       H  0.63903208  0.39612323  0.44098320     0.14600
H1553       H  0.63687308  0.29247484  0.30117245     0.46400
H1554       H  0.58504957  0.36706791  0.33223058     0.41800
H1555       H  0.61904164  0.45200611  0.47453632     0.45300
H1556       H  0.66489028  0.42411935  0.35885119     0.36700
C1557       C  0.86681131  0.35922683  0.16749461    -0.27500
C1558       C  0.86474750  0.36794768  0.12864384     0.02100
C1559       C  0.84539092  0.35685995  0.10720774     0.30200
C1560       C  0.82863816  0.33703904  0.12470604    -0.19300
C1561       C  0.83095580  0.32797607  0.16343612    -0.28700
C1562       C  0.85004952  0.33958609  0.18493690     0.44200
C1563       C  0.88370038  0.38714055  0.11072765     0.05400
O1564       O  0.84341747  0.36382288  0.06874648    -0.57200
H1565       H  0.81394062  0.32841992  0.10781964     0.18300
O1566       O  0.85216436  0.33255182  0.22328326    -0.63900
H1567       H  0.88146168  0.36786451  0.18447304     0.16800
C1568       C  0.87901762  0.41588196  0.09101986     0.29000
C1569       C  0.89755293  0.43331986  0.07475381    -0.24800
C1570       C  0.92105466  0.42290376  0.07835948    -0.24100
C1571       C  0.92558464  0.39417979  0.09853104     0.40500
C1572       C  0.90703146  0.37672937  0.11445050    -0.26600
O1573       O  0.85650072  0.42747332  0.08801481    -0.58500
H1574       H  0.89346470  0.45535173  0.05974080     0.16100
O1575       O  0.94803555  0.38273271  0.10296673    -0.59900
H1576       H  0.91089898  0.35467627  0.12960701     0.14600
H1577       H  0.84504140  0.35101472  0.23689271     0.46400
H1578       H  0.85312226  0.43767222  0.11315856     0.41800
H1579       H  0.95092805  0.36920810  0.08003102     0.45300
H1580       H  0.82945705  0.37794788  0.06650523     0.36700
O1581       O  0.96501114  0.43545198  0.92545326    -0.75200
O1582       O  0.93646731  0.46393983  0.95641368    -0.54100
C1583       C  0.94335355  0.44170054  0.93342851     0.78500
O1584       O  0.54190855  0.43663333  0.57408291    -0.59800
O1585       O  0.56942324  0.46705171  0.54327792    -0.52800
C1586       C  0.56331400  0.44423893  0.56608721     0.70600
O1587       O  0.96128386  0.43540071  0.56955884    -0.74300
O1588       O  0.93398687  0.46446837  0.53682847    -0.54900
C1589       C  0.93988732  0.44222605  0.56050771     0.76600
O1590       O  0.54453904  0.43964277  0.92742841    -0.59500
O1591       O  0.57091441  0.46888181  0.96207934    -0.52600
C1592       C  0.56563987  0.44692276  0.93782299     0.73200
Zr1593     Zr  0.00396930  0.45568299  0.94184583     2.54700
O1594       O  0.00433233  0.39766525  0.93698180    -0.80100
O1595       O  0.50355880  0.46260482  0.87171082    -0.93500
Zr1596     Zr  0.00137155  0.45324861  0.55594170     2.64700
O1597       O  0.00034308  0.39503572  0.55600851    -0.98400
O1598       O  0.50218949  0.45529180  0.62700302    -0.80500
O1599       O  0.98040998  0.45368875  0.99808141    -0.83800
O1600       O  0.52566356  0.45489405  0.99935050    -2.18600
O1601       O  0.54154638  0.06640662  0.92603022    -0.67200
O1602       O  0.56914805  0.03828295  0.95957895    -0.51800
C1603       C  0.56296072  0.05982196  0.93503622     0.71500
O1604       O  0.96147367  0.06547872  0.57304059    -0.60100
O1605       O  0.93467926  0.03631169  0.53918390    -0.52100
C1606       C  0.94028711  0.05844624  0.56322987     0.73300
O1607       O  0.54003816  0.06620653  0.57897976    -0.71500
O1608       O  0.56821242  0.03991562  0.54444368    -0.50200
C1609       C  0.56159269  0.06033156  0.56992151     0.74700
O1610       O  0.96255926  0.06616382  0.92580451    -0.66900
O1611       O  0.93515991  0.03563200  0.95641665    -0.54100
C1612       C  0.94114999  0.05821862  0.93326158     0.73100
Zr1613     Zr  0.50207275  0.04936467  0.94374328     2.77500
O1614       O  0.50086934  0.10749399  0.94722088    -0.97600
O1615       O  0.50231318  0.05052226  0.87372108    -0.78400
Zr1616     Zr  0.50106067  0.04926634  0.55785518     2.70100
O1617       O  0.50116225  0.10751322  0.55912103    -0.79700
O1618       O  0.49789861  0.04341978  0.62740917    -0.98800
Zr1619     Zr  0.95733548  0.00058583  0.49820784     2.21500
Zr1620     Zr  0.54725255  0.50375246  0.00135273     2.11100
O1621       O  0.52439535  0.05091153  0.50140040    -2.47500
O1622       O  0.97922881  0.04885558  0.50040380    -0.79500
O1623       O  0.52593192  0.50387508  0.94211093    -0.71700
O1624       O  0.97861623  0.00027522  0.55724882    -2.32600
O1625       O  0.97999198  0.00180351  0.94079213    -2.28800
O1626       O  0.52461333  0.50094682  0.55972976    -0.73400
H1627       H  0.53579573  0.43563482  0.50061533     0.78600
H1628       H  0.96808420  0.99970504  0.57909888     0.79700
H1629       H  0.53380464  0.06890256  0.00239745     0.81900
H1630       H  0.97014419  0.00185315  0.91812564     0.79500
H1631       H  0.98425529  0.46155583  0.63252602     0.42500
H1632       H  0.51367040  0.03621940  0.63579222     0.41500
H1633       H  0.98987314  0.11177984  0.53623933     0.41200
H1634       H  0.51498240  0.11354032  0.96219449     0.39100
H1635       H  0.51255635  0.03240879  0.86623367     0.42200
H1636       H  0.00959874  0.44214863  0.86204515     0.37000
H1637       H  0.00813660  0.39025359  0.96331779     0.43100
H1638       H  0.51426846  0.38864939  0.53866222     0.39600
H1639       H  0.50429891  0.11473765  0.92066656     0.44500
H1640       H  0.01986607  0.47649767  0.86809423     0.43200
H1641       H  0.00406977  0.38887556  0.58283967     0.43300
H1642       H  0.49655225  0.06559079  0.63716049     0.43700
O1643       O  0.79142258  0.31541553  0.67507251    -0.75200
O1644       O  0.81904813  0.28752921  0.70901393    -0.54100
C1645       C  0.81278196  0.30914438  0.68470969     0.78500
O1646       O  0.71385126  0.31855139  0.82389601    -0.59800
O1647       O  0.68587317  0.28858031  0.79399342    -0.52800
C1648       C  0.69230058  0.31096463  0.81707225     0.70600
O1649       O  0.79311059  0.31643471  0.82267913    -0.74300
O1650       O  0.82000924  0.28551065  0.79141660    -0.54900
C1651       C  0.81439332  0.30791580  0.81505010     0.76600
O1652       O  0.71236944  0.31455390  0.67435671    -0.59500
O1653       O  0.68493344  0.28721253  0.70914620    -0.52600
C1654       C  0.69097303  0.30823471  0.68391886     0.73200
Zr1655     Zr  0.75202321  0.29701585  0.69096468     2.54700
O1656       O  0.75204481  0.35468531  0.68119146    -0.80100
O1657       O  0.75258745  0.28691093  0.62206321    -0.93500
Zr1658     Zr  0.75313165  0.30110524  0.80507301     2.64700
O1659       O  0.75507831  0.35902329  0.79803353    -0.98400
O1660       O  0.75296008  0.30462248  0.87489755    -0.80500
O1661       O  0.77530614  0.29926315  0.74747878    -0.83800
O1662       O  0.72984934  0.30027483  0.74863382    -2.18600
O1663       O  0.71137556  0.18583355  0.68073753    -0.67200
O1664       O  0.68430910  0.21651768  0.71194956    -0.51800
C1665       C  0.69003965  0.19359464  0.68915389     0.71500
O1666       O  0.79150859  0.18694011  0.82499650    -0.60100
O1667       O  0.81903034  0.21439506  0.79039639    -0.50700
C1668       C  0.81287076  0.19297902  0.81500453     0.73300
O1669       O  0.71258194  0.18967193  0.82822058    -0.71500
O1670       O  0.68519101  0.21671400  0.79307210    -0.50200
C1671       C  0.69121854  0.19586400  0.81846080     0.74700
O1672       O  0.79070830  0.18474456  0.67802980    -0.66900
O1673       O  0.81882273  0.21364852  0.70919125    -0.54100
C1674       C  0.81226849  0.19149650  0.68584242     0.73100
Zr1675     Zr  0.75141413  0.20304820  0.69543891     2.77500
O1676       O  0.75306709  0.14489595  0.69491730    -0.97600
O1677       O  0.74953372  0.20608216  0.62558749    -0.78400
Zr1678     Zr  0.75213544  0.20650388  0.81012910     2.70100
O1679       O  0.75064650  0.14866105  0.81738128    -0.79700
O1680       O  0.75326700  0.21395974  0.87952939    -0.98800
Zr1681     Zr  0.79733653  0.25089512  0.74975017     2.21500
Zr1682     Zr  0.70706961  0.25250773  0.75165736     2.11100
O1683       O  0.72935200  0.20422082  0.75324381    -2.47500
O1684       O  0.77429546  0.20353880  0.75240710    -0.79500
O1685       O  0.72852275  0.25035694  0.69284350    -0.71700
O1686       O  0.77554125  0.25328165  0.80836587    -2.32600
O1687       O  0.77495847  0.24968930  0.69178379    -2.28800
O1688       O  0.72961578  0.25425869  0.80935838    -0.73400
H1689       H  0.71990289  0.31894959  0.74807734     0.78600
H1690       H  0.78583636  0.25356486  0.83043946     0.79700
H1691       H  0.71931762  0.18566156  0.75419327     0.81900
H1692       H  0.78506376  0.24899594  0.66944193     0.79500
H1693       H  0.75890260  0.28358118  0.88364970     0.42500
H1694       H  0.73796171  0.22394258  0.88590491     0.41500
H1695       H  0.75163405  0.14042045  0.79074648     0.41200
H1696       H  0.74183397  0.13813372  0.71514875     0.39100
H1697       H  0.74390938  0.18472365  0.61750944     0.42200
H1698       H  0.75209834  0.30843320  0.61023538     0.37000
H1699       H  0.74230657  0.36322603  0.70246201     0.43100
H1700       H  0.74288889  0.36435244  0.77874124     0.39600
H1701       H  0.74552185  0.13860334  0.67043320     0.44500
H1702       H  0.73693886  0.27758808  0.61645968     0.43200
H1703       H  0.74878827  0.36747240  0.82257379     0.43300
H1704       H  0.75214570  0.19202720  0.89019708     0.43700
C1705       C  0.59490920  0.10994099  0.64341116    -0.27500
C1706       C  0.61480742  0.11891854  0.62200049     0.02100
C1707       C  0.61726850  0.10796792  0.58393519     0.30200
C1708       C  0.60019811  0.08806055  0.56792287    -0.19300
C1709       C  0.58009784  0.07937072  0.58899519    -0.28700
C1710       C  0.57757746  0.09035906  0.62715731     0.44200
C1711       C  0.63362968  0.13830874  0.63983143     0.05400
O1712       O  0.63622165  0.11693379  0.56194433    -0.57200
H1713       H  0.60235607  0.08020471  0.53843332     0.18300
O1714       O  0.55837963  0.08195131  0.64889830    -0.63900
H1715       H  0.59298357  0.11775399  0.67294839     0.16800
C1716       C  0.62915604  0.16876183  0.65537157     0.29000
C1717       C  0.64763836  0.18660907  0.67117721    -0.24800
C1718       C  0.67076623  0.17448072  0.67179245    -0.24100
C1719       C  0.67502171  0.14378008  0.65630558     0.40500
C1720       C  0.65658698  0.12614688  0.64052992    -0.26600
O1721       O  0.60704959  0.18186611  0.65357952    -0.58500
H1722       H  0.64385624  0.21015712  0.68256846     0.16100
O1723       O  0.69706880  0.13044678  0.65667055    -0.59900
H1724       H  0.66022763  0.10261297  0.62894468     0.14600
H1725       H  0.56211170  0.06046025  0.65934463     0.46400
H1726       H  0.60016879  0.17854451  0.67951162     0.41800
H1727       H  0.69822387  0.11919600  0.68173637     0.45300
H1728       H  0.63228195  0.13857751  0.55216380     0.36700
C1729       C  0.65779104  0.14205915  0.88780565    -0.27500
C1730       C  0.63680556  0.13701224  0.86748916     0.02100
C1731       C  0.63340434  0.15261783  0.83199590     0.30200
C1732       C  0.65100939  0.17229635  0.81690853    -0.19300
C1733       C  0.67229087  0.17679724  0.83668203    -0.28700
C1734       C  0.67540609  0.16189193  0.87282064     0.44200
C1735       C  0.61809475  0.11658997  0.88417519     0.05400
O1736       O  0.61296169  0.14856698  0.81164658    -0.57200
H1737       H  0.64815795  0.18345321  0.78913965     0.18300
O1738       O  0.69546415  0.16671045  0.89394212    -0.63900
H1739       H  0.66037190  0.13097676  0.91568031     0.16800
C1740       C  0.62247731  0.08473172  0.89532788     0.29000
C1741       C  0.60435486  0.06627425  0.91144514    -0.24800
C1742       C  0.58169225  0.07912341  0.91647466    -0.24100
C1743       C  0.57736785  0.11094520  0.90468977     0.40500
C1744       C  0.59549086  0.12932940  0.88899023    -0.26600
O1745       O  0.64413467  0.07111729  0.88924131    -0.58500
H1746       H  0.60800727  0.04178863  0.91976186     0.16100
O1747       O  0.55558129  0.12463476  0.90891067    -0.59900
H1748       H  0.59190921  0.15389330  0.88090986     0.14600
H1749       H  0.69283764  0.18714036  0.90774254     0.46400
H1750       H  0.65174914  0.07045161  0.91488360     0.41800
H1751       H  0.55607685  0.13568349  0.93411480     0.45300
H1752       H  0.61625075  0.13085737  0.79348364     0.36700
C1753       C  0.59602543  0.37392992  0.60962161    -0.27500
C1754       C  0.61797464  0.38748403  0.61775399     0.02100
C1755       C  0.62208523  0.41982272  0.60850231     0.30200
C1756       C  0.60424201  0.43815655  0.59154717    -0.19300
C1757       C  0.58210565  0.42467491  0.58382426    -0.28700
C1758       C  0.57825197  0.39209421  0.59255521     0.44200
C1759       C  0.63659330  0.36727110  0.63487577     0.05400
O1760       O  0.64343206  0.43374206  0.61604457    -0.57200
H1761       H  0.60763473  0.46304631  0.58485632     0.18300
O1762       O  0.55736091  0.37745984  0.58371786    -0.63900
H1763       H  0.59281132  0.34891024  0.61585509     0.16800
C1764       C  0.63287460  0.35108784  0.66988821     0.29000
C1765       C  0.65039537  0.33112202  0.68482146    -0.24800
C1766       C  0.67207091  0.32747623  0.66571963    -0.24100
C1767       C  0.67573681  0.34387598  0.63062650     0.40500
C1768       C  0.65799989  0.36334994  0.61542274    -0.26600
O1769       O  0.61232785  0.35511869  0.69007301    -0.58500
H1770       H  0.64722607  0.31923817  0.71206656     0.16100
O1771       O  0.69630463  0.34037750  0.61034674    -0.59900
H1772       H  0.66092314  0.37530305  0.58814675     0.14600
H1773       H  0.55921713  0.36998043  0.55681773     0.46400
H1774       H  0.61541416  0.37314814  0.70785708     0.41800
H1775       H  0.70542082  0.36013902  0.61543257     0.45300
H1776       H  0.64302931  0.43906292  0.64382741     0.36700
C1777       C  0.84421360  0.13796863  0.61433522    -0.27500
C1778       C  0.86554385  0.13237443  0.63348557     0.02100
C1779       C  0.86933756  0.14659302  0.66965569     0.30200
C1780       C  0.85216200  0.16643547  0.68584488    -0.19300
C1781       C  0.83070424  0.17187803  0.66696613    -0.28700
C1782       C  0.82689270  0.15754796  0.63071371     0.44200
C1783       C  0.88430511  0.11317143  0.61482507     0.05400
O1784       O  0.88977668  0.14105249  0.68953985    -0.57200
H1785       H  0.85550572  0.17712595  0.71360695     0.18300
O1786       O  0.80652349  0.16302646  0.61060813    -0.63900
H1787       H  0.84118413  0.12771397  0.58617648     0.16800
C1788       C  0.88018865  0.08182053  0.60168303     0.29000
C1789       C  0.89853389  0.06420949  0.58495087    -0.24800
C1790       C  0.92109505  0.07750136  0.58078847    -0.24100
C1791       C  0.92498535  0.10920583  0.59326938     0.40500
C1792       C  0.90672710  0.12660627  0.61015325    -0.26600
O1793       O  0.85861785  0.06770254  0.60667947    -0.58500
H1794       H  0.89515193  0.03991291  0.57572123     0.16100
O1795       O  0.94645456  0.12371987  0.58868598    -0.59900
H1796       H  0.91004724  0.15092904  0.61936752     0.14600
H1797       H  0.80933883  0.18315334  0.59619457     0.46400
H1798       H  0.85150133  0.06692610  0.58065985     0.41800
H1799       H  0.94685507  0.13087056  0.56146315     0.45300
H1800       H  0.88629208  0.12257487  0.70653220     0.36700
C1801       C  0.91143791  0.37051290  0.89019351    -0.27500
C1802       C  0.88937762  0.38377491  0.88149047     0.02100
C1803       C  0.88542694  0.41646706  0.88898936     0.30200
C1804       C  0.90302349  0.43496782  0.90618527    -0.19300
C1805       C  0.92508414  0.42169270  0.91495274    -0.28700
C1806       C  0.92929599  0.38922759  0.90627180     0.44200
C1807       C  0.87049839  0.36325056  0.86529944     0.05400
O1808       O  0.86449216  0.43066108  0.87926150    -0.57200
H1809       H  0.89952013  0.45994678  0.91209084     0.18300
O1810       O  0.95036244  0.37506665  0.91531303    -0.63900
H1811       H  0.91474693  0.34535217  0.88515134     0.16800
C1812       C  0.87473866  0.34323414  0.83345410     0.29000
C1813       C  0.85662572  0.32432758  0.81863985    -0.24800
C1814       C  0.83377877  0.32566608  0.83412851    -0.24100
C1815       C  0.82976635  0.34491610  0.86686821     0.40500
C1816       C  0.84801853  0.36339967  0.88210422    -0.26600
O1817       O  0.89640575  0.34234629  0.81603878    -0.58500
H1818       H  0.86043224  0.30913209  0.79425213     0.16100
O1819       O  0.80815223  0.34580192  0.88445457    -0.59900
H1820       H  0.84459330  0.37786023  0.90733169     0.14600
H1821       H  0.95914772  0.37384973  0.89068459     0.46400
H1822       H  0.89722373  0.36204976  0.80017104     0.41800
H1823       H  0.80844849  0.32814092  0.90352187     0.45300
H1824       H  0.86692030  0.43910719  0.85287595     0.36700
C1825       C  0.88120460  0.08531648  0.89670213    -0.27500
C1826       C  0.88674866  0.11501360  0.88024669     0.02100
C1827       C  0.91020650  0.12576507  0.88087125     0.30200
C1828       C  0.92766346  0.10692018  0.89796088    -0.19300
C1829       C  0.92223118  0.07702989  0.91437684    -0.28700
C1830       C  0.89868460  0.06623341  0.91332612     0.44200
C1831       C  0.86779326  0.13479094  0.86325019     0.05400
O1832       O  0.91600127  0.15536791  0.86659807    -0.57200
H1833       H  0.94547715  0.11610438  0.89882888     0.18300
O1834       O  0.89245888  0.03709761  0.92836025    -0.63900
H1835       H  0.86322502  0.07671044  0.89627982     0.16800
C1836       C  0.86937701  0.14619686  0.82520225     0.29000
C1837       C  0.85169274  0.16586072  0.81037826    -0.24800
C1838       C  0.83170516  0.17336147  0.83235291    -0.24100
C1839       C  0.82977571  0.16116035  0.87008006     0.40500
C1840       C  0.84777906  0.14213681  0.88526365    -0.26600
O1841       O  0.88784031  0.13763095  0.80194139    -0.58500
H1842       H  0.85330682  0.17452639  0.78116259     0.16100
O1843       O  0.81055289  0.16795311  0.89255026    -0.59900
H1844       H  0.84623179  0.13334744  0.91450346     0.14600
H1845       H  0.89416405  0.02178944  0.90677441     0.46400
H1846       H  0.88273579  0.11765382  0.78910386     0.41800
H1847       H  0.81366278  0.18944331  0.90341970     0.45300
H1848       H  0.92589223  0.15122987  0.84360131     0.36700
C1849       C  0.63347189  0.33789618  0.85863971    -0.27500
C1850       C  0.63906716  0.36857783  0.87206302     0.02100
C1851       C  0.66232521  0.37971630  0.86855499     0.30200
C1852       C  0.67945296  0.36048355  0.85126337    -0.19300
C1853       C  0.67379485  0.33003363  0.83673483    -0.28700
C1854       C  0.65049924  0.31877127  0.84081956     0.44200
C1855       C  0.62041305  0.38902955  0.88882682     0.05400
O1856       O  0.66842359  0.40961909  0.88126810    -0.57200
H1857       H  0.69714238  0.36985322  0.84845548     0.18300
O1858       O  0.64427742  0.28879343  0.82857361    -0.63900
H1859       H  0.61576914  0.32869176  0.86195871     0.16800
C1860       C  0.59958163  0.39532067  0.86827949     0.29000
C1861       C  0.58223508  0.41489471  0.88425230    -0.24800
C1862       C  0.58505751  0.42809877  0.92101243    -0.24100
C1863       C  0.60589575  0.42172680  0.94175202     0.40500
C1864       C  0.62336646  0.40232214  0.92556805    -0.26600
O1865       O  0.59629442  0.38310653  0.83208224    -0.58500
H1866       H  0.56642837  0.41963376  0.86778997     0.16100
O1867       O  0.60879773  0.43274558  0.97860728    -0.59900
H1868       H  0.63909224  0.39714391  0.94204369     0.14600
H1869       H  0.63670129  0.29210084  0.80318525     0.46400
H1870       H  0.58465234  0.36563870  0.83528195     0.41800
H1871       H  0.61759153  0.45310334  0.97592080     0.45300
H1872       H  0.66463262  0.42426153  0.85966875     0.36700
C1873       C  0.86746723  0.35945642  0.67084063    -0.27500
C1874       C  0.86523340  0.36872809  0.63216624     0.02100
C1875       C  0.84589464  0.35766643  0.61066972     0.30200
C1876       C  0.82899937  0.33807933  0.62811940    -0.19300
C1877       C  0.83128492  0.32879412  0.66673128    -0.28700
C1878       C  0.85072466  0.33960927  0.68808519     0.44200
C1879       C  0.88401804  0.38819414  0.61411325     0.05400
O1880       O  0.84417749  0.36422829  0.57207061    -0.57200
H1881       H  0.81426851  0.32964152  0.61118216     0.18300
O1882       O  0.85330132  0.33145171  0.72602489    -0.63900
H1883       H  0.88226334  0.36770318  0.68776577     0.16800
C1884       C  0.87899712  0.41642709  0.59354429     0.29000
C1885       C  0.89722343  0.43347734  0.57576504    -0.24800
C1886       C  0.92077420  0.42325751  0.57886400    -0.24100
C1887       C  0.92566470  0.39508172  0.59997721     0.40500
C1888       C  0.90741885  0.37806836  0.61746495    -0.26600
O1889       O  0.85642537  0.42790127  0.59121880    -0.58500
H1890       H  0.89287437  0.45508949  0.56007828     0.16100
O1891       O  0.94818597  0.38369319  0.60370472    -0.59900
H1892       H  0.91157456  0.35639742  0.63320123     0.14600
H1893       H  0.84418516  0.34773682  0.74045958     0.46400
H1894       H  0.85436487  0.44150606  0.61431512     0.41800
H1895       H  0.94980831  0.36703873  0.58359367     0.45300
H1896       H  0.82992711  0.37772593  0.56920865     0.36700
O1897       O  0.96535728  0.93577245  0.42457850    -0.75200
O1898       O  0.93677058  0.96407960  0.45565972    -0.54100
C1899       C  0.94367285  0.94203053  0.43238785     0.78500
O1900       O  0.54173608  0.93622260  0.07345976    -0.59800
O1901       O  0.56941311  0.96749766  0.04428587    -0.52800
C1902       C  0.56318910  0.94423371  0.06635424     0.70600
O1903       O  0.96215135  0.93440463  0.07102582    -0.74300
O1904       O  0.93488469  0.96307957  0.03758975    -0.54900
C1905       C  0.94079838  0.94111378  0.06166176     0.76600
O1906       O  0.54457856  0.93841949  0.42830798    -0.59500
O1907       O  0.57094299  0.96706565  0.46357868    -0.52600
C1908       C  0.56569461  0.94521252  0.43908697     0.73200
Zr1909     Zr  0.00434217  0.95561268  0.44173393     2.54700
O1910       O  0.00645598  0.89755235  0.43947707    -0.80100
O1911       O  0.50424508  0.96365481  0.37372272    -0.93500
Zr1912     Zr  0.00180146  0.95266317  0.05575915     2.64700
O1913       O  0.00196552  0.89467899  0.04939685    -0.98400
O1914       O  0.50028922  0.95818623  0.12657662    -0.80500
O1915       O  0.98054539  0.95334429  0.49776507    -0.83800
O1916       O  0.52566401  0.95502636  0.50133627    -2.18600
O1917       O  0.54119360  0.56749694  0.42715282    -0.67200
O1918       O  0.56882340  0.53943597  0.46066946    -0.51800
C1919       C  0.56260841  0.56119427  0.43643383     0.71500
O1920       O  0.96110799  0.56565519  0.07273690    -0.60100
O1921       O  0.93427926  0.53598367  0.03968313    -0.52100
C1922       C  0.93990611  0.55837849  0.06332679     0.73300
O1923       O  0.53923580  0.56567297  0.07944193    -0.71500
O1924       O  0.56738347  0.54108182  0.04318580    -0.50200
C1925       C  0.56074833  0.56085559  0.06938679     0.74700
O1926       O  0.96286845  0.56570616  0.42324445    -0.66900
O1927       O  0.93534097  0.53645002  0.45534353    -0.54100
C1928       C  0.94140165  0.55817790  0.43103416     0.73100
Zr1929     Zr  0.50185746  0.54947876  0.44433896     2.77500
O1930       O  0.49984379  0.60756699  0.44747740    -0.97600
O1931       O  0.50202977  0.55030333  0.37433435    -0.78400
Zr1932     Zr  0.50059390  0.54814573  0.05772508     2.70100
O1933       O  0.50091828  0.60632642  0.05620711    -0.79700
O1934       O  0.49835099  0.54397395  0.12753066    -0.98800
Zr1935     Zr  0.95708056  0.50085724  0.99826423     2.21500
Zr1936     Zr  0.54767078  0.00354061  0.50203827     2.11100
O1937       O  0.52367812  0.55077250  0.00116146    -2.47500
O1938       O  0.97894121  0.54911517  0.00033766    -0.79500
O1939       O  0.52639726  0.00329635  0.44306122    -0.71700
O1940       O  0.97821624  0.50027934  0.05751120    -2.32600
O1941       O  0.98008150  0.50174611  0.44046921    -2.28800
O1942       O  0.52444822  0.00119409  0.05960137    -0.73400
H1943       H  0.53574609  0.93563729  0.00101993     0.78600
H1944       H  0.96765314  0.49973738  0.07932416     0.79700
H1945       H  0.53359282  0.56889198  0.50293639     0.81900
H1946       H  0.97026224  0.50173466  0.41777904     0.79500
H1947       H  0.99733990  0.92841506  0.13207593     0.42500
H1948       H  0.51205908  0.53064554  0.13478598     0.41500
H1949       H  0.00120392  0.61176800  0.02998087     0.41200
H1950       H  0.51424776  0.61410411  0.46137394     0.39100
H1951       H  0.50836916  0.52915829  0.36687250     0.42200
H1952       H  0.01394035  0.98115236  0.36734603     0.37000
H1953       H  0.00342560  0.89070121  0.46630059     0.43100
H1954       H  0.51332235  0.88804851  0.04163665     0.39600
H1955       H  0.50243075  0.61474759  0.42064660     0.44500
H1956       H  0.98876720  0.96615013  0.36471586     0.43200
H1957       H  0.00419994  0.88656871  0.07592215     0.43300
H1958       H  0.50232146  0.56564817  0.13690925     0.43700
O1959       O  0.79104323  0.81517141  0.17369361    -0.75200
O1960       O  0.81874220  0.78760634  0.20781537    -0.54100
C1961       C  0.81243581  0.80911060  0.18341373     0.78500
O1962       O  0.71373615  0.81708584  0.32465201    -0.59800
O1963       O  0.68557028  0.78822673  0.29353999    -0.52800
C1964       C  0.69218709  0.80998351  0.31727285     0.70600
O1965       O  0.79310136  0.81614239  0.32236343    -0.74300
O1966       O  0.81987283  0.78601875  0.28975465    -0.54900
C1967       C  0.81437388  0.80798894  0.31406211     0.76600
O1968       O  0.71201335  0.81540351  0.17452278    -0.59500
O1969       O  0.68465617  0.78825426  0.20967958    -0.52600
C1970       C  0.69068206  0.80933093  0.18454559     0.73200
Zr1971     Zr  0.75152878  0.79711503  0.19012998     2.54700
O1972       O  0.75112781  0.85477022  0.18054584    -0.80100
O1973       O  0.75068523  0.78806033  0.12100570    -0.93500
Zr1974     Zr  0.75303414  0.80122902  0.30442168     2.64700
O1975       O  0.75347019  0.85897757  0.29497471    -0.98400
O1976       O  0.75404072  0.80780395  0.37397366    -0.80500
O1977       O  0.77495438  0.79963364  0.24652234    -0.83800
O1978       O  0.72966512  0.80028975  0.24810664    -2.18600
O1979       O  0.71090948  0.68605683  0.17932814    -0.67200
O1980       O  0.68395446  0.71639978  0.21127059    -0.51800
C1981       C  0.68962888  0.69356982  0.18823795     0.71500
O1982       O  0.79115454  0.68679494  0.32333802    -0.60100
O1983       O  0.81862550  0.71471486  0.28919754    -0.50700
C1984       C  0.81249903  0.69301138  0.31347878     0.73300
O1985       O  0.71235326  0.68984027  0.32724841    -0.71500
O1986       O  0.68486507  0.71669668  0.29211465    -0.50200
C1987       C  0.69097608  0.69576724  0.31733933     0.74700
O1988       O  0.79009213  0.68474033  0.17688728    -0.66900
O1989       O  0.81813347  0.71420116  0.20751205    -0.54100
C1990       C  0.81163758  0.69187014  0.18438636     0.73100
Zr1991     Zr  0.75084487  0.70297140  0.19469746     2.77500
O1992       O  0.75012141  0.64484134  0.19906192    -0.97600
O1993       O  0.74996634  0.70304108  0.12466848    -0.78400
Zr1994     Zr  0.75186825  0.70678899  0.30921032     2.70100
O1995       O  0.74938402  0.64901324  0.31596708    -0.79700
O1996       O  0.75399808  0.71440430  0.37850692    -0.98800
Zr1997     Zr  0.79691261  0.75121757  0.24857524     2.21500
Zr1998     Zr  0.70674392  0.75263580  0.25096768     2.11100
O1999       O  0.72898383  0.70454855  0.25254211    -2.47500
O2000       O  0.77395778  0.70378779  0.25140590    -0.79500
O2001       O  0.72797310  0.75039207  0.19191724    -0.71700
O2002       O  0.77538267  0.75342648  0.30744797    -2.32600
O2003       O  0.77432140  0.74972859  0.19077226    -2.28800
O2004       O  0.72934941  0.75448210  0.30873208    -0.73400
H2005       H  0.71979460  0.81904540  0.24780885     0.78600
H2006       H  0.78575305  0.75362853  0.32943329     0.79700
H2007       H  0.71890434  0.68603941  0.25356080     0.81900
H2008       H  0.78434055  0.74903121  0.16832420     0.79500
H2009       H  0.75439251  0.78571423  0.38423280     0.42500
H2010       H  0.73820000  0.72229736  0.38583842     0.41500
H2011       H  0.75761501  0.64061273  0.29298040     0.41200
H2012       H  0.73616325  0.63977012  0.21501947     0.39100
H2013       H  0.74394632  0.68161376  0.11767988     0.42200
H2014       H  0.75222530  0.80967233  0.10964699     0.37000
H2015       H  0.75885254  0.86347334  0.20378935     0.43100
H2016       H  0.73672704  0.86533022  0.29306941     0.39600
H2017       H  0.74588699  0.63756954  0.17288602     0.44500
H2018       H  0.73423470  0.78173935  0.11548210     0.43200
H2019       H  0.75871984  0.86768940  0.31999917     0.43300
H2020       H  0.75473052  0.69243690  0.38915457     0.43700
C2021       C  0.59441372  0.61067692  0.14238700    -0.27500
C2022       C  0.61440218  0.61912581  0.12092557     0.02100
C2023       C  0.61666226  0.60818707  0.08285271     0.30200
C2024       C  0.59926425  0.58880376  0.06685778    -0.19300
C2025       C  0.57918959  0.58028879  0.08813081    -0.28700
C2026       C  0.57687152  0.59136777  0.12631032     0.44200
C2027       C  0.63333043  0.63828516  0.13871707     0.05400
O2028       O  0.63578740  0.61652185  0.06091402    -0.57200
H2029       H  0.60128550  0.58094662  0.03734504     0.18300
O2030       O  0.55777467  0.58312817  0.14836506    -0.63900
H2031       H  0.59262588  0.61859153  0.17191239     0.16800
C2032       C  0.62891798  0.66882834  0.15397526     0.29000
C2033       C  0.64736418  0.68659529  0.16992567    -0.24800
C2034       C  0.67039686  0.67427442  0.17107771    -0.24100
C2035       C  0.67460808  0.64334331  0.15613316     0.40500
C2036       C  0.65618903  0.62580711  0.14002731    -0.26600
O2037       O  0.60687319  0.68207813  0.15177786    -0.58500
H2038       H  0.64363402  0.71027207  0.18096043     0.16100
O2039       O  0.69659479  0.62981698  0.15722746    -0.59900
H2040       H  0.65974711  0.60214663  0.12873727     0.14600
H2041       H  0.56164512  0.56182956  0.15924328     0.46400
H2042       H  0.60025887  0.68030305  0.17811118     0.41800
H2043       H  0.69645169  0.61550589  0.18000513     0.45300
H2044       H  0.63164907  0.63745971  0.04929972     0.36700
C2045       C  0.65748668  0.64235654  0.38687701    -0.27500
C2046       C  0.63625081  0.63783656  0.36712258     0.02100
C2047       C  0.63296878  0.65288925  0.33122748     0.30200
C2048       C  0.65079844  0.67195977  0.31562356    -0.19300
C2049       C  0.67214778  0.67637853  0.33528994    -0.28700
C2050       C  0.67535281  0.66136515  0.37130015     0.44200
C2051       C  0.61750817  0.61790206  0.38461271     0.05400
O2052       O  0.61243177  0.64901429  0.31108151    -0.57200
H2053       H  0.64800152  0.68290605  0.28771429     0.18300
O2054       O  0.69577469  0.66528021  0.39174545    -0.63900
H2055       H  0.66011477  0.63148692  0.41485381     0.16800
C2056       C  0.62212171  0.58652412  0.39735994     0.29000
C2057       C  0.60411247  0.56825222  0.41400326    -0.24800
C2058       C  0.58133320  0.58082739  0.41832141    -0.24100
C2059       C  0.57686638  0.61244497  0.40583567     0.40500
C2060       C  0.59485585  0.63060986  0.38921291    -0.26600
O2061       O  0.64394494  0.57310913  0.39225881    -0.58500
H2062       H  0.60795343  0.54403040  0.42316223     0.16100
O2063       O  0.55508326  0.62611328  0.41021855    -0.59900
H2064       H  0.59115419  0.65494747  0.38032220     0.14600
H2065       H  0.69245133  0.68282958  0.41011816     0.46400
H2066       H  0.65100076  0.57205183  0.41831307     0.41800
H2067       H  0.55563957  0.63711554  0.43545052     0.45300
H2068       H  0.61528712  0.63053030  0.29386252     0.36700
C2069       C  0.59608486  0.87412300  0.11007533    -0.27500
C2070       C  0.61756644  0.88828221  0.11971291     0.02100
C2071       C  0.62127866  0.92087774  0.11187280     0.30200
C2072       C  0.60357102  0.93891296  0.09412784    -0.19300
C2073       C  0.58191007  0.92483285  0.08454467    -0.28700
C2074       C  0.57839504  0.89200669  0.09235927     0.44200
C2075       C  0.63627905  0.86839075  0.13661483     0.05400
O2076       O  0.64210563  0.93526237  0.12167430    -0.57200
H2077       H  0.60665149  0.96403820  0.08840501     0.18300
O2078       O  0.55796497  0.87689769  0.08197420    -0.63900
H2079       H  0.59322708  0.84890154  0.11557899     0.16800
C2080       C  0.63323404  0.85375203  0.17268440     0.29000
C2081       C  0.65074491  0.83368883  0.18730883    -0.24800
C2082       C  0.67183996  0.82883573  0.16693816    -0.24100
C2083       C  0.67501324  0.84421270  0.13107136     0.40500
C2084       C  0.65712529  0.86342036  0.11597949    -0.26600
O2085       O  0.61344139  0.85954008  0.19420455    -0.58500
H2086       H  0.64810888  0.82278072  0.21528624     0.16100
O2087       O  0.69526175  0.84010916  0.11010691    -0.59900
H2088       H  0.65952742  0.87452015  0.08804998     0.14600
H2089       H  0.56054612  0.86985896  0.05505917     0.46400
H2090       H  0.61736988  0.87845636  0.21011638     0.41800
H2091       H  0.70472686  0.85962471  0.11485703     0.45300
H2092       H  0.63927940  0.94473740  0.14740063     0.36700
C2093       C  0.84390274  0.63821422  0.11345943    -0.27500
C2094       C  0.86546280  0.63359663  0.13227366     0.02100
C2095       C  0.86935381  0.64866818  0.16792920     0.30200
C2096       C  0.85196779  0.66821671  0.18398688    -0.19300
C2097       C  0.83021975  0.67252048  0.16553156    -0.28700
C2098       C  0.82635168  0.65741081  0.12977715     0.44200
C2099       C  0.88415877  0.61405081  0.11399803     0.05400
O2100       O  0.89002299  0.64416069  0.18756162    -0.57200
H2101       H  0.85536379  0.67950805  0.21139886     0.18300
O2102       O  0.80562869  0.66156290  0.11020103    -0.63900
H2103       H  0.84079111  0.62731583  0.08568189     0.16800
C2104       C  0.87994948  0.58245458  0.10179472     0.29000
C2105       C  0.89820897  0.56446344  0.08538827    -0.24800
C2106       C  0.92076896  0.57764077  0.08066180    -0.24100
C2107       C  0.92473383  0.60956482  0.09219294     0.40500
C2108       C  0.90656507  0.62734578  0.10872308    -0.26600
O2109       O  0.85835897  0.56852900  0.10736410    -0.58500
H2110       H  0.89476631  0.54000904  0.07683748     0.16100
O2111       O  0.94620930  0.62391309  0.08698026    -0.59900
H2112       H  0.90994710  0.65184488  0.11716449     0.14600
H2113       H  0.80805363  0.68092343  0.09416691     0.46400
H2114       H  0.85111097  0.56742548  0.08146047     0.41800
H2115       H  0.94592835  0.63231319  0.06027597     0.45300
H2116       H  0.88799025  0.62366915  0.20157916     0.36700
C2117       C  0.91205937  0.87170303  0.38625312    -0.27500
C2118       C  0.88950238  0.88440463  0.37998146     0.02100
C2119       C  0.88510413  0.91649740  0.39023143     0.30200
C2120       C  0.90281746  0.93489565  0.40729519    -0.19300
C2121       C  0.92538270  0.92219756  0.41351434    -0.28700
C2122       C  0.92996301  0.89033586  0.40236193     0.44200
C2123       C  0.87058806  0.86376952  0.36381010     0.05400
O2124       O  0.86354611  0.93019234  0.38360897    -0.57200
H2125       H  0.89891425  0.95935359  0.41530275     0.18300
O2126       O  0.95145418  0.87649195  0.40917097    -0.63900
H2127       H  0.91574052  0.84692952  0.37946807     0.16800
C2128       C  0.87461628  0.84426168  0.33140535     0.29000
C2129       C  0.85658882  0.82489107  0.31706402    -0.24800
C2130       C  0.83386302  0.82570914  0.33308975    -0.24100
C2131       C  0.83002258  0.84463839  0.36616768     0.40500
C2132       C  0.84830258  0.86313067  0.38132418    -0.26600
O2133       O  0.89591288  0.84455267  0.31278527    -0.58500
H2134       H  0.86030971  0.80993411  0.29243897     0.16100
O2135       O  0.80851501  0.84534289  0.38410256    -0.59900
H2136       H  0.84499657  0.87705163  0.40701979     0.14600
H2137       H  0.95969203  0.87671666  0.38399913     0.46400
H2138       H  0.89496952  0.86267934  0.29441684     0.41800
H2139       H  0.80850767  0.82662273  0.40165274     0.45300
H2140       H  0.86529343  0.94196381  0.35897723     0.36700
C2141       C  0.88128649  0.58461564  0.39393562    -0.27500
C2142       C  0.88669499  0.61418148  0.37695246     0.02100
C2143       C  0.91024027  0.62469601  0.37673460     0.30200
C2144       C  0.92783004  0.60590922  0.39366881    -0.19300
C2145       C  0.92245961  0.57644001  0.41118716    -0.28700
C2146       C  0.89888815  0.56567847  0.41060580     0.44200
C2147       C  0.86755775  0.63412690  0.36041433     0.05400
O2148       O  0.91599104  0.65422974  0.36221874    -0.57200
H2149       H  0.94567497  0.61500053  0.39393487     0.18300
O2150       O  0.89274846  0.53675671  0.42631529    -0.63900
H2151       H  0.86329778  0.57603680  0.39407086     0.16800
C2152       C  0.86914732  0.64649921  0.32276087     0.29000
C2153       C  0.85151002  0.66654505  0.30858131    -0.24800
C2154       C  0.83134899  0.67319588  0.33048807    -0.24100
C2155       C  0.82919770  0.65969485  0.36755288     0.40500
C2156       C  0.84733860  0.64065472  0.38237782    -0.26600
O2157       O  0.88749420  0.63836422  0.29905667    -0.58500
H2158       H  0.85323497  0.67599791  0.27972226     0.16100
O2159       O  0.80950918  0.66492246  0.38955788    -0.59900
H2160       H  0.84565208  0.63105379  0.41122312     0.14600
H2161       H  0.89277827  0.52155086  0.40445548     0.46400
H2162       H  0.88314467  0.61730714  0.28810018     0.41800
H2163       H  0.81262542  0.68512565  0.40353345     0.45300
H2164       H  0.92582359  0.64999843  0.33917879     0.36700
C2165       C  0.63439846  0.83583066  0.36245624    -0.27500
C2166       C  0.63947230  0.86755882  0.37252215     0.02100
C2167       C  0.66202153  0.87996581  0.36512034     0.30200
C2168       C  0.67903863  0.86078183  0.34754342    -0.19300
C2169       C  0.67390371  0.82912207  0.33684850    -0.28700
C2170       C  0.65134064  0.81667297  0.34453372     0.44200
C2171       C  0.62083954  0.88775870  0.38955391     0.05400
O2172       O  0.66749422  0.91093973  0.37442878    -0.57200
H2173       H  0.69619316  0.87097068  0.34159027     0.18300
O2174       O  0.64595487  0.78550131  0.33606782    -0.63900
H2175       H  0.61720638  0.82585448  0.36858849     0.16800
C2176       C  0.59961596  0.89283625  0.36975712     0.29000
C2177       C  0.58198402  0.91175067  0.38612201    -0.24800
C2178       C  0.58515290  0.92612657  0.42225292    -0.24100
C2179       C  0.60663989  0.92129387  0.44192574     0.40500
C2180       C  0.62419166  0.90202523  0.42561597    -0.26600
O2181       O  0.59634109  0.88037446  0.33367310    -0.58500
H2182       H  0.56582758  0.91542238  0.37020357     0.16100
O2183       O  0.61034499  0.93419840  0.47767089    -0.59900
H2184       H  0.64040724  0.89801651  0.44128220     0.14600
H2185       H  0.63658513  0.78646791  0.31204184     0.46400
H2186       H  0.58632106  0.86122337  0.33749618     0.41800
H2187       H  0.62022289  0.95338066  0.47312530     0.45300
H2188       H  0.66229650  0.92391275  0.35208322     0.36700
C2189       C  0.86743381  0.85895901  0.17002033    -0.27500
C2190       C  0.86537290  0.86832105  0.13142972     0.02100
C2191       C  0.84578661  0.85814583  0.10991328     0.30200
C2192       C  0.82875493  0.83854458  0.12707077    -0.19300
C2193       C  0.83095461  0.82892440  0.16560791    -0.28700
C2194       C  0.85034247  0.83966373  0.18719651     0.44200
C2195       C  0.88443292  0.88740851  0.11375455     0.05400
O2196       O  0.84381337  0.86586653  0.07166350    -0.57200
H2197       H  0.81393058  0.83052960  0.11005731     0.18300
O2198       O  0.85241817  0.83223868  0.22541782    -0.63900
H2199       H  0.88229516  0.86690554  0.18700598     0.16800
C2200       C  0.87999458  0.91718420  0.09629094     0.29000
C2201       C  0.89845423  0.93429742  0.07938356    -0.24800
C2202       C  0.92163909  0.92242054  0.08005539    -0.24100
C2203       C  0.92603704  0.89280629  0.09839562     0.40500
C2204       C  0.90753441  0.87573708  0.11510475    -0.26600
O2205       O  0.85776288  0.92997589  0.09596338    -0.58500
H2206       H  0.89459365  0.95716088  0.06610672     0.16100
O2207       O  0.94826043  0.88005475  0.10000901    -0.59900
H2208       H  0.91119907  0.85295274  0.12875368     0.14600
H2209       H  0.84376476  0.84939974  0.23913098     0.46400
H2210       H  0.85553846  0.93937609  0.12188708     0.41800
H2211       H  0.94988260  0.86713643  0.07625041     0.45300
H2212       H  0.83018942  0.88063412  0.06996887     0.36700
O2213       O  0.96538779  0.93326384  0.92715142    -0.75200
O2214       O  0.93680536  0.96330797  0.95571171    -0.54100
C2215       C  0.94372434  0.94019068  0.93405399     0.78500
O2216       O  0.54201552  0.93810779  0.57450009    -0.59800
O2217       O  0.56978872  0.96813096  0.54376816    -0.52800
C2218       C  0.56352065  0.94532023  0.56645566     0.70600
O2219       O  0.96289838  0.93446732  0.57138200    -0.74300
O2220       O  0.93563834  0.96340752  0.53831963    -0.54900
C2221       C  0.94155766  0.94123489  0.56216852     0.76600
O2222       O  0.54449538  0.93780079  0.92882725    -0.59500
O2223       O  0.57087139  0.96683096  0.96357642    -0.52600
C2224       C  0.56559186  0.94479364  0.93937409     0.73200
Zr2225     Zr  0.00398731  0.95540898  0.94159872     2.54700
O2226       O  0.00645817  0.89772156  0.93329209    -0.80100
O2227       O  0.50496115  0.96200274  0.87298845    -0.93500
Zr2228     Zr  0.00219013  0.95355054  0.55588449     2.64700
O2229       O  0.00232950  0.89537397  0.55243362    -0.98400
O2230       O  0.50030829  0.96037205  0.62733609    -0.80500
O2231       O  0.98027177  0.95287460  0.99763640    -0.83800
O2232       O  0.52556957  0.95407595  0.00076134    -2.18600
O2233       O  0.54093016  0.56817717  0.92617795    -0.67200
O2234       O  0.56873660  0.53995660  0.95915920    -0.51800
C2235       C  0.56239787  0.56178462  0.93506922     0.71500
O2236       O  0.96059823  0.56537034  0.57156810    -0.60100
O2237       O  0.93370603  0.53581666  0.53851806    -0.52100
C2238       C  0.93935903  0.55811830  0.56225352     0.73300
O2239       O  0.53990194  0.56431830  0.57966338    -0.71500
O2240       O  0.56796854  0.53862087  0.54431200    -0.50200
C2241       C  0.56141856  0.55880121  0.57003472     0.74700
O2242       O  0.96272835  0.56704802  0.92611028    -0.66900
O2243       O  0.93525804  0.53664163  0.95675515    -0.54100
C2244       C  0.94127863  0.55917271  0.93354527     0.73100
Zr2245     Zr  0.50157341  0.55013650  0.94329529     2.77500
O2246       O  0.49968079  0.60819801  0.94799497    -0.97600
O2247       O  0.50111777  0.55241642  0.87327267    -0.78400
Zr2248     Zr  0.50080955  0.54747280  0.55889825     2.70100
O2249       O  0.50205279  0.60559790  0.55959967    -0.79700
O2250       O  0.49791752  0.54254974  0.62855190    -0.98800
Zr2251     Zr  0.95685286  0.50074837  0.49764700     2.21500
Zr2252     Zr  0.54736350  0.00275603  0.00215486     2.11100
O2253       O  0.52387680  0.55000804  0.50222466    -2.47500
O2254       O  0.97873899  0.54912181  0.50009976    -0.79500
O2255       O  0.52622564  0.00289577  0.94297632    -0.71700
O2256       O  0.97784965  0.50002455  0.55708295    -2.32600
O2257       O  0.98003585  0.50214524  0.94079026    -2.28800
O2258       O  0.52482652  0.00271006  0.55959931    -0.73400
H2259       H  0.53579242  0.93653705  0.50173296     0.78600
H2260       H  0.96719822  0.49954132  0.57877528     0.79700
H2261       H  0.53329412  0.56974920  0.00184569     0.81900
H2262       H  0.97015806  0.50215085  0.91817688     0.79500
H2263       H  0.00192858  0.93184585  0.63361702     0.42500
H2264       H  0.51190532  0.52989683  0.63603868     0.41500
H2265       H  0.00414313  0.61387677  0.54096168     0.41200
H2266       H  0.51482082  0.61464378  0.95968684     0.39100
H2267       H  0.49662434  0.57472092  0.86710539     0.42200
H2268       H  0.01231643  0.94688844  0.86149802     0.37000
H2269       H  0.00432992  0.88895737  0.95954763     0.43100
H2270       H  0.51437371  0.88998120  0.54352358     0.39600
H2271       H  0.50063595  0.61588424  0.92108632     0.44500
H2272       H  0.01309016  0.98383512  0.86855928     0.43200
H2273       H  0.00589607  0.88817784  0.57894441     0.43300
H2274       H  0.50117328  0.56435480  0.63827742     0.43700
O2275       O  0.79101123  0.81650062  0.67400456    -0.75200
O2276       O  0.81866827  0.78786030  0.70696073    -0.54100
C2277       C  0.81239434  0.80988575  0.68315966     0.78500
O2278       O  0.71382112  0.81709682  0.82447026    -0.59800
O2279       O  0.68574556  0.78852418  0.79279773    -0.52800
C2280       C  0.69227287  0.81011286  0.81685413     0.70600
O2281       O  0.79317258  0.81615565  0.82176190    -0.74300
O2282       O  0.82014422  0.78631682  0.78918141    -0.54900
C2283       C  0.81449585  0.80829367  0.81339049     0.76600
O2284       O  0.71232317  0.81495870  0.67359021    -0.59500
O2285       O  0.68492660  0.78715543  0.70794761    -0.52600
C2286       C  0.69095783  0.80826091  0.68284274     0.73200
Zr2287     Zr  0.75183491  0.79762618  0.69062181     2.54700
O2288       O  0.75099447  0.85558699  0.68472375    -0.80100
O2289       O  0.75244959  0.78883072  0.62141556    -0.93500
Zr2290     Zr  0.75311398  0.80032096  0.80502244     2.64700
O2291       O  0.75402296  0.85846467  0.80111834    -0.98400
O2292       O  0.75345078  0.80085312  0.87504323    -0.80500
O2293       O  0.77510919  0.79938108  0.74715725    -0.83800
O2294       O  0.72985214  0.80012867  0.74849262    -2.18600
O2295       O  0.71095188  0.68672343  0.67882308    -0.67200
O2296       O  0.68381695  0.71627207  0.71140325    -0.51800
C2297       C  0.68959712  0.69370060  0.68808423     0.71500
O2298       O  0.79149327  0.68731070  0.82428547    -0.60100
O2299       O  0.81887153  0.71446999  0.78901487    -0.50700
C2300       C  0.81280276  0.69330519  0.81405157     0.73300
O2301       O  0.71268088  0.68954240  0.82777742    -0.71500
O2302       O  0.68545275  0.71705626  0.79269106    -0.50200
C2303       C  0.69135368  0.69615521  0.81806568     0.74700
O2304       O  0.79016537  0.68452569  0.67674615    -0.66900
O2305       O  0.81829812  0.71392795  0.70727481    -0.54100
C2306       C  0.81171073  0.69148737  0.68436330     0.73100
Zr2307     Zr  0.75107285  0.70361846  0.69375540     2.77500
O2308       O  0.75085929  0.64539673  0.69401725    -0.97600
O2309       O  0.75132452  0.70777945  0.62391662    -0.78400
Zr2310     Zr  0.75215362  0.70598627  0.80836072     2.70100
O2311       O  0.75198717  0.64782310  0.81085865    -0.79700
O2312       O  0.75359017  0.71279088  0.87784535    -0.98800
Zr2313     Zr  0.79727991  0.75119575  0.74830802     2.21500
Zr2314     Zr  0.70693309  0.75250717  0.75055347     2.11100
O2315       O  0.72917256  0.70431594  0.75166992    -2.47500
O2316       O  0.77417926  0.70393826  0.75045979    -0.79500
O2317       O  0.72822704  0.75096050  0.69162384    -0.71700
O2318       O  0.77567535  0.75269483  0.80712123    -2.32600
O2319       O  0.77466740  0.75027553  0.69068933    -2.28800
O2320       O  0.72951709  0.75357613  0.80821320    -0.73400
H2321       H  0.71994882  0.81885862  0.74821412     0.78600
H2322       H  0.78604005  0.75285173  0.82910224     0.79700
H2323       H  0.71909659  0.68579742  0.75257083     0.81900
H2324       H  0.78470383  0.74974319  0.66825051     0.79500
H2325       H  0.75283910  0.82379321  0.88196082     0.42500
H2326       H  0.74077457  0.72809083  0.88361077     0.41500
H2327       H  0.76062101  0.64120386  0.78742006     0.41200
H2328       H  0.73820910  0.63941158  0.71227414     0.39100
H2329       H  0.74614494  0.68647498  0.61489950     0.42200
H2330       H  0.75326887  0.81055037  0.61016904     0.37000
H2331       H  0.75325318  0.86334805  0.71135642     0.43100
H2332       H  0.73791885  0.86484241  0.79342971     0.39600
H2333       H  0.74475268  0.63931240  0.66840666     0.44500
H2334       H  0.73639633  0.78122620  0.61517140     0.43200
H2335       H  0.75546969  0.86565846  0.82812977     0.43300
H2336       H  0.74796883  0.69213619  0.88837970     0.43700
C2337       C  0.59556378  0.60746806  0.64322727    -0.27500
C2338       C  0.61514448  0.61695369  0.62133897     0.02100
C2339       C  0.61706419  0.60677130  0.58285882     0.30200
C2340       C  0.59970414  0.58724894  0.56693089    -0.19300
C2341       C  0.57998653  0.57797019  0.58863849    -0.28700
C2342       C  0.57802013  0.58817950  0.62713851     0.44200
C2343       C  0.63385704  0.63670168  0.63900608     0.05400
O2344       O  0.63572982  0.61607191  0.56041361    -0.57200
H2345       H  0.60139006  0.58000068  0.53712922     0.18300
O2346       O  0.55919279  0.57919479  0.64939973    -0.63900
H2347       H  0.59403464  0.61469781  0.67303504     0.16800
C2348       C  0.62886435  0.66662298  0.65558966     0.29000
C2349       C  0.64706993  0.68496462  0.67149435    -0.24800
C2350       C  0.67047923  0.67389334  0.67114770    -0.24100
C2351       C  0.67523266  0.64353267  0.65496845     0.40500
C2352       C  0.65705891  0.62542801  0.63900142    -0.26600
O2353       O  0.60644532  0.67878019  0.65469829    -0.58500
H2354       H  0.64285165  0.70811643  0.68361660     0.16100
O2355       O  0.69755257  0.63106061  0.65469908    -0.59900
H2356       H  0.66110132  0.60224142  0.62677290     0.14600
H2357       H  0.56369848  0.55827529  0.66067662     0.46400
H2358       H  0.59993722  0.67484178  0.68076187     0.41800
H2359       H  0.69839274  0.61713222  0.67777556     0.45300
H2360       H  0.63160624  0.63777550  0.55104393     0.36700
C2361       C  0.65651285  0.64448513  0.88770721    -0.27500
C2362       C  0.63594055  0.63890691  0.86646884     0.02100
C2363       C  0.63338322  0.65319689  0.83002553     0.30200
C2364       C  0.65126099  0.67259685  0.81529654    -0.19300
C2365       C  0.67215267  0.67755395  0.83605044    -0.28700
C2366       C  0.67457880  0.66352060  0.87276873     0.44200
C2367       C  0.61711180  0.61861187  0.88293287     0.05400
O2368       O  0.61371836  0.64771550  0.80817716    -0.57200
H2369       H  0.64904977  0.68290373  0.78689733     0.18300
O2370       O  0.69444160  0.66825689  0.89439081    -0.63900
H2371       H  0.65851565  0.63416606  0.91612482     0.16800
C2372       C  0.62184491  0.58734844  0.89585970     0.29000
C2373       C  0.60390248  0.56902120  0.91259798    -0.24800
C2374       C  0.58102982  0.58139102  0.91660062    -0.24100
C2375       C  0.57637067  0.61276741  0.90335346     0.40500
C2376       C  0.59431010  0.63097376  0.88666199    -0.26600
O2377       O  0.64373768  0.57412144  0.89085913    -0.58500
H2378       H  0.60787796  0.54493955  0.92212641     0.16100
O2379       O  0.55448384  0.62623768  0.90722511    -0.59900
H2380       H  0.59049461  0.65515154  0.87727079     0.14600
H2381       H  0.69203908  0.68915968  0.90723798     0.46400
H2382       H  0.65098247  0.57387668  0.91679735     0.41800
H2383       H  0.55485708  0.63754428  0.93227047     0.45300
H2384       H  0.61791690  0.62947925  0.79130225     0.36700
C2385       C  0.59562101  0.87414171  0.60952141    -0.27500
C2386       C  0.61812812  0.88668029  0.61552809     0.02100
C2387       C  0.62282694  0.91862838  0.60518475     0.30200
C2388       C  0.60503100  0.93753636  0.58899751    -0.19300
C2389       C  0.58225633  0.92516740  0.58364224    -0.28700
C2390       C  0.57779974  0.89298053  0.59375099     0.44200
C2391       C  0.63653749  0.86606980  0.63248290     0.05400
O2392       O  0.64463971  0.93169869  0.61128816    -0.57200
H2393       H  0.60895600  0.96206434  0.58124125     0.18300
O2394       O  0.55619989  0.87933739  0.58768997    -0.63900
H2395       H  0.59190262  0.84943433  0.61674451     0.16800
C2396       C  0.63294487  0.85074885  0.66810042     0.29000
C2397       C  0.65050130  0.83116948  0.68352099    -0.24800
C2398       C  0.67204308  0.82702171  0.66424474    -0.24100
C2399       C  0.67553502  0.84230958  0.62841910     0.40500
C2400       C  0.65775400  0.86138185  0.61270828    -0.26600
O2401       O  0.61250551  0.85528056  0.68842147    -0.58500
H2402       H  0.64749058  0.82002675  0.71126443     0.16100
O2403       O  0.69600607  0.83819454  0.60804709    -0.59900
H2404       H  0.66054953  0.87259233  0.58494610     0.14600
H2405       H  0.55657222  0.87179024  0.56065852     0.46400
H2406       H  0.61546112  0.87427406  0.70475446     0.41800
H2407       H  0.70542166  0.85771125  0.61304180     0.45300
H2408       H  0.64477732  0.93789430  0.63881136     0.36700
C2409       C  0.84387813  0.63681159  0.61464675    -0.27500
C2410       C  0.86511405  0.63163456  0.63418837     0.02100
C2411       C  0.86878881  0.64652225  0.66998865     0.30200
C2412       C  0.85152584  0.66658687  0.68542535    -0.19300
C2413       C  0.83016826  0.67165224  0.66610176    -0.28700
C2414       C  0.82649497  0.65667820  0.63023113     0.44200
C2415       C  0.88387897  0.61231240  0.61592801     0.05400
O2416       O  0.88917594  0.64148887  0.69019974    -0.57200
H2417       H  0.85472062  0.67776551  0.71296149     0.18300
O2418       O  0.80619298  0.66175749  0.60979498    -0.63900
H2419       H  0.84098587  0.62603559  0.58673236     0.16800
C2420       C  0.87979438  0.58073900  0.60360735     0.29000
C2421       C  0.89791191  0.56331668  0.58593966    -0.24800
C2422       C  0.92022755  0.57702578  0.58022946    -0.24100
C2423       C  0.92408323  0.60886799  0.59217817     0.40500
C2424       C  0.90603264  0.62611431  0.60985749    -0.26600
O2425       O  0.85847401  0.56633376  0.61015356    -0.58500
H2426       H  0.89458853  0.53886055  0.57727622     0.16100
O2427       O  0.94536321  0.62359610  0.58641834    -0.59900
H2428       H  0.90927379  0.65060906  0.61847576     0.14600
H2429       H  0.81012989  0.67876080  0.59093707     0.46400
H2430       H  0.85058014  0.56572206  0.58473808     0.41800
H2431       H  0.94450314  0.63274460  0.56010706     0.45300
H2432       H  0.88572685  0.62321698  0.70753216     0.36700
C2433       C  0.91152460  0.86945852  0.89009343    -0.27500
C2434       C  0.88952119  0.88305752  0.88172525     0.02100
C2435       C  0.88566190  0.91559788  0.89011614     0.30200
C2436       C  0.90336806  0.93372754  0.90738905    -0.19300
C2437       C  0.92541493  0.92022877  0.91568814    -0.28700
C2438       C  0.92949645  0.88781961  0.90644738     0.44200
C2439       C  0.87060641  0.86310042  0.86477701     0.05400
O2440       O  0.86469884  0.93006410  0.88119034    -0.57200
H2441       H  0.89993352  0.95865216  0.91372812     0.18300
O2442       O  0.95058630  0.87343444  0.91481269    -0.63900
H2443       H  0.91471989  0.84437154  0.88435064     0.16800
C2444       C  0.87475036  0.84415023  0.83204017     0.29000
C2445       C  0.85671937  0.82512218  0.81704749    -0.24800
C2446       C  0.83385244  0.82616239  0.83254058    -0.24100
C2447       C  0.82979854  0.84515098  0.86552362     0.40500
C2448       C  0.84813178  0.86299122  0.88153597    -0.26600
O2449       O  0.89617876  0.84476313  0.81381976    -0.58500
H2450       H  0.86057634  0.81024184  0.79242137     0.16100
O2451       O  0.80802625  0.84658424  0.88250568    -0.59900
H2452       H  0.84471636  0.87695384  0.90717162     0.14600
H2453       H  0.95951444  0.87353069  0.89027578     0.46400
H2454       H  0.89400400  0.85913706  0.79136987     0.41800
H2455       H  0.80755468  0.82822006  0.90057419     0.45300
H2456       H  0.86602482  0.93593295  0.85361395     0.36700
C2457       C  0.88130942  0.58589975  0.89625833    -0.27500
C2458       C  0.88683330  0.61551882  0.87953866     0.02100
C2459       C  0.91031634  0.62621416  0.88004153     0.30200
C2460       C  0.92777033  0.60749677  0.89739608    -0.19300
C2461       C  0.92233310  0.57782951  0.91435319    -0.28700
C2462       C  0.89877764  0.56700185  0.91328601     0.44200
C2463       C  0.86783884  0.63533620  0.86254584     0.05400
O2464       O  0.91612699  0.65574342  0.86556308    -0.57200
H2465       H  0.94558850  0.61666574  0.89813400     0.18300
O2466       O  0.89250838  0.53806620  0.92882467    -0.63900
H2467       H  0.86333748  0.57725804  0.89587955     0.16800
C2468       C  0.86955812  0.64720806  0.82470536     0.29000
C2469       C  0.85186576  0.66686146  0.80991714    -0.24800
C2470       C  0.83167404  0.67385709  0.83160561    -0.24100
C2471       C  0.82952412  0.66106685  0.86903397     0.40500
C2472       C  0.84762182  0.64220967  0.88430777    -0.26600
O2473       O  0.88816535  0.63909076  0.80153639    -0.58500
H2474       H  0.85363303  0.67585115  0.78086214     0.16100
O2475       O  0.80986898  0.66682709  0.89092922    -0.59900
H2476       H  0.84591513  0.63305023  0.91335945     0.14600
H2477       H  0.89433770  0.52246029  0.90757865     0.46400
H2478       H  0.88333789  0.61900174  0.78866666     0.41800
H2479       H  0.81417975  0.68488150  0.90796912     0.45300
H2480       H  0.92660004  0.65153820  0.84327928     0.36700
C2481       C  0.63403993  0.83556131  0.86127201    -0.27500
C2482       C  0.63918890  0.86690222  0.87289306     0.02100
C2483       C  0.66201533  0.87902066  0.86719257     0.30200
C2484       C  0.67914877  0.86008771  0.84944828    -0.19300
C2485       C  0.67387624  0.82896947  0.83678209    -0.28700
C2486       C  0.65108430  0.81669228  0.84310604     0.44200
C2487       C  0.62045521  0.88701645  0.88995658     0.05400
O2488       O  0.66764562  0.90953723  0.87826584    -0.57200
H2489       H  0.69650217  0.87012463  0.84484002     0.18300
O2490       O  0.64550423  0.78594553  0.83291996    -0.63900
H2491       H  0.61668837  0.82566789  0.86628311     0.16800
C2492       C  0.59920002  0.89216935  0.87018372     0.29000
C2493       C  0.58168219  0.91129302  0.88649233    -0.24800
C2494       C  0.58494121  0.92567041  0.92257133    -0.24100
C2495       C  0.60633774  0.92065079  0.94232144     0.40500
C2496       C  0.62382330  0.90131620  0.92602884    -0.26600
O2497       O  0.59579534  0.87965421  0.83415914    -0.58500
H2498       H  0.56552882  0.91508290  0.87059084     0.16100
O2499       O  0.60997242  0.93330279  0.97821213    -0.59900
H2500       H  0.63999006  0.89721086  0.94178060     0.14600
H2501       H  0.63649713  0.78791229  0.80860989     0.46400
H2502       H  0.58477967  0.86151680  0.83784299     0.41800
H2503       H  0.61823648  0.95384566  0.97365182     0.45300
H2504       H  0.66407368  0.92316175  0.85562779     0.36700
C2505       C  0.86789138  0.85860533  0.66972642    -0.27500
C2506       C  0.86580790  0.86840255  0.63127131     0.02100
C2507       C  0.84599984  0.85883911  0.60983421     0.30200
C2508       C  0.82865656  0.83979744  0.62708456    -0.19300
C2509       C  0.83098615  0.82958887  0.66538381    -0.28700
C2510       C  0.85076237  0.83926352  0.68669747     0.44200
C2511       C  0.88502359  0.88730584  0.61362843     0.05400
O2512       O  0.84422097  0.86629654  0.57146653    -0.57200
H2513       H  0.81361415  0.83237905  0.61018907     0.18300
O2514       O  0.85336069  0.83033949  0.72435977    -0.63900
H2515       H  0.88292188  0.86596238  0.68669706     0.16800
C2516       C  0.88053796  0.91625274  0.59427480     0.29000
C2517       C  0.89902119  0.93310958  0.57720587    -0.24800
C2518       C  0.92240041  0.92233033  0.58032743    -0.24100
C2519       C  0.92692788  0.89382558  0.60106425     0.40500
C2520       C  0.90830200  0.87653441  0.61711519    -0.26600
O2521       O  0.85825064  0.92877370  0.59267422    -0.58500
H2522       H  0.89500001  0.95517828  0.56222953     0.16100
O2523       O  0.94941660  0.88272519  0.60638071    -0.59900
H2524       H  0.91207831  0.85449442  0.63236424     0.14600
H2525       H  0.84620927  0.84796916  0.73943882     0.46400
H2526       H  0.85590291  0.93963411  0.61772783     0.41800
H2527       H  0.95230896  0.86781480  0.58472706     0.45300
H2528       H  0.83032693  0.88054372  0.56925560     0.36700
loop_ 
_geom_bond_atom_site_label_1 
_geom_bond_atom_site_label_2 
_geom_bond_distance 
_geom_bond_site_symmetry_2 
_ccdc_geom_bond_type 
O1          Zr13   2.435       .  S
O1            C3   1.287       .  A
O2         Zr987   2.428       .  S
O2            C3   1.288       .  A
C3          C225   1.480       .  S
O4        Zr1280   2.446       .  S
O4            C6   1.289       .  A
O5         Zr356   2.424       .  S
O5            C6   1.287       .  A
C6          C177   1.484       .  S
O7          Zr16   2.435       .  S
O7            C9   1.287       .  A
O8         Zr671   2.417   1_554  S
O8            C9   1.286       .  A
C9          C306   1.483       .  S
O10       Zr1277   2.444       .  S
O10          C12   1.289       .  A
O11         Zr40   2.419       .  S
O11          C12   1.285       .  A
C12         C282   1.482       .  S
Zr13       O1274   2.448       .  S
Zr13         O14   2.435       .  S
Zr13       O1279   2.433       .  S
Zr13         O19   2.371       .  S
Zr13       O1284   2.363       .  S
Zr13       O1307   2.369       .  S
Zr13        O677   2.373       .  S
O14          H57   0.990       .  S
O15       Zr1277   2.436       .  S
O15        H1320   0.990       .  S
O15        H1324   0.990   1_455  S
Zr16       O1268   2.438       .  S
Zr16         O17   2.437       .  S
Zr16       O1282   2.434       .  S
Zr16       O1600   2.365   1_554  S
Zr16        O335   2.366   1_554  S
Zr16        O676   2.369       .  S
Zr16       O1310   2.375       .  S
O17          H61   0.990       .  S
O17        H1322   0.990       .  S
O18       Zr1280   2.435       .  S
O18        H1315   0.990   1_455  S
O19        Zr332   2.370       .  S
O19        Zr987   2.380       .  S
O20         Zr40   2.382       .  S
O20       Zr1277   2.360       .  S
O20       Zr1596   2.368       .  S
O20         H363   0.964       .  S
O21         Zr33   2.434       .  S
O21          C23   1.287       .  A
O22        Zr672   2.429       .  S
O22          C23   1.288       .  A
C23         C162   1.485       .  S
O24       Zr1300   2.433       .  S
O24          C26   1.287       .  A
O25         Zr39   2.433   1_554  S
O25          C26   1.288       .  A
C26         C210   1.484       .  S
O27         Zr36   2.441       .  S
O27          C29   1.288       .  A
O28        Zr988   2.417       .  S
O28          C29   1.286       .  A
C29         C129   1.477       .  S
O30       Zr1297   2.445       .  S
O30          C32   1.290       .  A
O31        Zr355   2.417       .  S
O31          C32   1.285       .  A
C32         C249   1.487       .  S
Zr33       O1294   2.440   1_455  S
Zr33         O34   2.437       .  S
Zr33         O35   2.434       .  S
Zr33        O357   2.371       .  S
Zr33       O1622   2.365   1_455  S
Zr33       O1309   2.371   1_455  S
Zr33        O675   2.374       .  S
O34          H54   0.990       .  S
O34          H59   0.990       .  S
O35          H55   0.990       .  S
Zr36       O1288   2.428   1_455  S
Zr36         O37   2.435       .  S
Zr36         O38   2.435   1_455  S
Zr36         O41   2.368       .  S
Zr36       O1306   2.373   1_455  S
Zr36        O678   2.370       .  S
Zr36       O1308   2.370   1_445  S
O37        H1317   0.990   1_455  S
O38          H52   0.989   1_655  S
O38          H62   0.991   1_655  S
Zr39        O950   2.425   1_545  S
Zr39        O640   2.411   1_546  S
Zr39        O347   2.419       .  S
Zr39         O42   2.375   1_556  S
Zr39         O44   2.383   1_556  S
Zr39        O967   2.381   1_545  S
Zr39        O361   2.385       .  S
Zr40        O321   2.426       .  S
Zr40        O654   2.433       .  S
Zr40        O976   2.422       .  S
Zr40         O43   2.384       .  S
Zr40        O989   2.383       .  S
Zr40        O362   2.387       .  S
O41        Zr349   2.370   1_554  S
O41        Zr988   2.380       .  S
O41         H365   0.964       .  S
O42       Zr1613   2.366   1_554  S
O42       Zr1300   2.375       .  S
O43       Zr1277   2.369       .  S
O43        Zr665   2.376       .  S
O44        Zr648   2.368   1_545  S
O44       Zr1300   2.372       .  S
O44          H48   0.966   1_545  S
O45        Zr645   2.375   1_545  S
O45       Zr1297   2.371       .  S
O45        Zr355   2.382       .  S
O45          H50   0.967       .  S
O46       Zr1280   2.374       .  S
O46        Zr668   2.370       .  S
O46        Zr356   2.383       .  S
H47         O336   0.964       .  S
H49         O357   0.964       .  S
H51        O1282   0.990       .  S
H53        O1301   0.990       .  S
H56        O1279   0.989       .  S
H58        O1281   0.990       .  S
H60        O1279   0.991       .  S
O63         Zr75   2.429       .  S
O63          C65   1.286       .  A
O64        Zr101   2.424       .  S
O64          C65   1.287       .  A
C65         C297   1.476       .  S
O66         Zr78   2.437       .  S
O66          C68   1.288       .  A
O67        Zr102   2.427       .  S
O67          C68   1.288       .  A
C68         C273   1.483       .  S
O69         Zr78   2.445       .  S
O69          C71   1.289       .  A
O70        Zr101   2.423       .  S
O70          C71   1.287       .  A
C71         C234   1.489       .  S
O72         Zr75   2.432       .  S
O72          C74   1.286       .  A
O73        Zr102   2.419       .  S
O73          C74   1.286       .  A
C74         C186   1.479       .  S
Zr75         O76   2.432       .  S
Zr75         O77   2.434       .  S
Zr75         O81   2.374       .  S
Zr75         O82   2.368       .  S
Zr75        O105   2.370       .  S
Zr75        O107   2.369       .  S
O76         H119   0.990       .  S
O77         H118   0.989       .  S
O77         H122   0.991       .  S
Zr78         O79   2.437       .  S
Zr78         O80   2.434       .  S
Zr78         O82   2.371       .  S
Zr78         O81   2.368       .  S
Zr78        O106   2.369       .  S
Zr78        O108   2.378       .  S
O79         H120   0.990       .  S
O79         H123   0.990       .  S
O80         H113   0.990       .  S
O81        Zr101   2.379       .  S
O82        Zr102   2.383       .  S
O82         H109   0.964       .  S
O83         Zr95   2.445       .  S
O83          C85   1.288       .  A
O84        Zr102   2.434       .  S
O84          C85   1.289       .  A
C85         C138   1.491       .  S
O86         Zr98   2.433       .  S
O86          C88   1.286       .  A
O87        Zr101   2.419       .  S
O87          C88   1.287       .  A
C88         C258   1.477       .  S
O89         Zr98   2.435       .  S
O89          C91   1.287       .  A
O90        Zr102   2.412       .  S
O90          C91   1.285       .  A
C91         C153   1.475       .  S
O92         Zr95   2.434       .  S
O92          C94   1.287       .  A
O93        Zr101   2.425       .  S
O93          C94   1.288       .  A
C94         C201   1.480       .  S
Zr95         O96   2.437       .  S
Zr95         O97   2.434       .  S
Zr95        O103   2.365       .  S
Zr95        O104   2.372       .  S
Zr95        O107   2.370       .  S
Zr95        O105   2.369       .  S
O96         H116   0.990       .  S
O96         H121   0.990       .  S
O97         H117   0.990       .  S
Zr98         O99   2.433       .  S
Zr98        O100   2.434       .  S
Zr98        O104   2.370       .  S
Zr98        O103   2.366       .  S
Zr98        O108   2.370       .  S
Zr98        O106   2.367       .  S
O99         H115   0.990       .  S
O100        H114   0.990       .  S
O100        H124   0.991       .  S
Zr101       O104   2.378       .  S
Zr101       O106   2.383       .  S
Zr101       O107   2.385       .  S
Zr102       O103   2.381       .  S
Zr102       O105   2.380       .  S
Zr102       O108   2.386       .  S
O103        H111   0.964       .  S
O106        H110   0.966       .  S
O107        H112   0.966       .  S
C125        C126   1.405       .  A
C125        C130   1.401       .  A
C125        H135   1.083       .  S
C126        C131   1.482       .  S
C126        C127   1.408       .  A
C127        C128   1.396       .  A
C127        O132   1.372       .  S
C128        C129   1.404       .  A
C128        H133   1.084       .  S
C129        C130   1.410       .  A
C130        O134   1.372       .  S
C131        C136   1.407       .  A
C131        C140   1.401       .  A
O132        H148   0.992       .  S
O134        H145   0.992       .  S
C136        C137   1.404       .  A
C136        O141   1.372       .  S
C137        C138   1.409       .  A
C137        H142   1.083       .  S
C138        C139   1.416       .  A
C139        C140   1.398       .  A
C139        O143   1.371       .  S
C140        H144   1.084       .  S
O141        H146   0.992       .  S
O143        H147   0.992       .  S
C149        C150   1.403       .  A
C149        C154   1.398       .  A
C149        H159   1.083       .  S
C150        C155   1.482       .  S
C150        C151   1.410       .  A
C151        C152   1.397       .  A
C151        O156   1.372       .  S
C152        C153   1.404       .  A
C152        H157   1.084       .  S
C153        C154   1.410       .  A
C154        O158   1.372       .  S
C155        C160   1.409       .  A
C155        C164   1.401       .  A
O156        H172   0.992       .  S
O158        H169   0.992       .  S
C160        C161   1.403       .  A
C160        O165   1.372       .  S
C161        C162   1.407       .  A
C161        H166   1.083       .  S
C162        C163   1.414       .  A
C163        C164   1.397       .  A
C163        O167   1.372       .  S
C164        H168   1.084       .  S
O165        H170   0.992       .  S
O167        H171   0.992       .  S
C173        C174   1.399       .  A
C173        C178   1.396       .  A
C173        H183   1.084       .  S
C174        C179   1.479       .  S
C174        C175   1.408       .  A
C175        C176   1.402       .  A
C175        O180   1.372       .  S
C176        C177   1.407       .  A
C176        H181   1.083       .  S
C177        C178   1.414       .  A
C178        O182   1.371       .  S
C179        C184   1.407       .  A
C179        C188   1.402       .  A
O180        H196   0.992       .  S
O182        H193   0.992       .  S
C184        C185   1.396       .  A
C184        O189   1.372       .  S
C185        C186   1.405       .  A
C185        H190   1.084       .  S
C186        C187   1.413       .  A
C187        C188   1.399       .  A
C187        O191   1.372       .  S
C188        H192   1.084       .  S
O189        H194   0.992       .  S
O191        H195   0.992       .  S
C197        C198   1.401       .  A
C197        C202   1.398       .  A
C197        H207   1.083       .  S
C198        C203   1.480       .  S
C198        C199   1.409       .  A
C199        C200   1.398       .  A
C199        O204   1.372       .  S
C200        C201   1.404       .  A
C200        H205   1.082       .  S
C201        C202   1.413       .  A
C202        O206   1.372       .  S
C203        C208   1.408       .  A
C203        C212   1.400       .  A
O204        H220   0.992       .  S
O206        H217   0.992       .  S
C208        C209   1.403       .  A
C208        O213   1.372       .  S
C209        C210   1.407       .  A
C209        H214   1.083       .  S
C210        C211   1.414       .  A
C211        C212   1.395       .  A
C211        O215   1.372       .  S
C212        H216   1.084       .  S
O213        H218   0.992       .  S
O215        H219   0.992       .  S
C221        C222   1.403       .  A
C221        C226   1.398       .  A
C221        H231   1.083       .  S
C222        C227   1.487       .  S
C222        C223   1.412       .  A
C223        C224   1.400       .  A
C223        O228   1.372       .  S
C224        C225   1.404       .  A
C224        H229   1.083       .  S
C225        C226   1.411       .  A
C226        O230   1.372       .  S
C227        C232   1.409       .  A
C227        C236   1.404       .  A
O228        H244   0.992       .  S
O230        H241   0.992       .  S
C232        C233   1.400       .  A
C232        O237   1.372       .  S
C233        C234   1.407       .  A
C233        H238   1.082       .  S
C234        C235   1.414       .  A
C235        C236   1.398       .  A
C235        O239   1.371       .  S
C236        H240   1.084       .  S
O237        H242   0.992       .  S
O239        H243   0.992       .  S
C245        C246   1.403       .  A
C245        C250   1.401       .  A
C245        H255   1.084       .  S
C246        C251   1.482       .  S
C246        C247   1.407       .  A
C247        C248   1.399       .  A
C247        O252   1.373       .  S
C248        C249   1.406       .  A
C248        H253   1.083       .  S
C249        C250   1.414       .  A
C250        O254   1.372       .  S
C251        C256   1.408       .  A
C251        C260   1.404       .  A
O252        H268   0.992       .  S
O254        H265   0.992       .  S
C256        C257   1.396       .  A
C256        O261   1.371       .  S
C257        C258   1.403       .  A
C257        H262   1.082       .  S
C258        C259   1.412       .  A
C259        C260   1.400       .  A
C259        O263   1.372       .  S
C260        H264   1.084       .  S
O261        H266   0.992       .  S
O263        H267   0.992       .  S
C269        C270   1.403       .  A
C269        C274   1.400       .  A
C269        H279   1.084       .  S
C270        C275   1.479       .  S
C270        C271   1.406       .  A
C271        C272   1.399       .  A
C271        O276   1.372       .  S
C272        C273   1.407       .  A
C272        H277   1.084       .  S
C273        C274   1.411       .  A
C274        O278   1.372       .  S
C275        C280   1.406       .  A
C275        C284   1.403       .  A
O276        H292   0.992       .  S
O278        H289   0.992       .  S
C280        C281   1.398       .  A
C280        O285   1.372       .  S
C281        C282   1.405       .  A
C281        H286   1.083       .  S
C282        C283   1.414       .  A
C283        C284   1.401       .  A
C283        O287   1.372       .  S
C284        H288   1.084       .  S
O285        H290   0.992       .  S
O287        H291   0.992       .  S
C293        C294   1.402       .  A
C293        C298   1.396       .  A
C293        H303   1.084       .  S
C294        C299   1.479       .  S
C294        C295   1.409       .  A
C295        C296   1.401       .  A
C295        O300   1.373       .  S
C296        C297   1.405       .  A
C296        H301   1.084       .  S
C297        C298   1.408       .  A
C298        O302   1.370       .  S
C299        C304   1.408       .  A
C299        C308   1.402       .  A
O300        H316   0.992       .  S
O302        H313   0.992       .  S
C304        C305   1.399       .  A
C304        O309   1.371       .  S
C305        C306   1.407       .  A
C305        H310   1.084       .  S
C306        C307   1.413       .  A
C307        C308   1.396       .  A
C307        O311   1.372       .  S
C308        H312   1.084       .  S
O309        H314   0.992       .  S
O311        H315   0.992       .  S
O317       Zr329   2.435       .  S
O317        C319   1.287       .  A
O318       Zr671   2.424       .  S
O318        C319   1.287       .  A
C319        C541   1.480       .  S
O320      Zr1596   2.441       .  S
O320        C322   1.288       .  A
O321        C322   1.287       .  A
C322        C493   1.479       .  S
O323       Zr332   2.433       .  S
O323        C325   1.287       .  A
O324       Zr987   2.419       .  S
O324        C325   1.287       .  A
C325        C622   1.481       .  S
O326      Zr1593   2.444       .  S
O326        C328   1.289       .  A
O327       Zr356   2.417   1_556  S
O327        C328   1.285       .  A
C328        C598   1.476       .  S
Zr329      O1590   2.445       .  S
Zr329       O330   2.437       .  S
Zr329      O1595   2.435       .  S
Zr329       O335   2.372       .  S
Zr329      O1600   2.366       .  S
Zr329      O1623   2.371       .  S
Zr329       O993   2.372       .  S
O330        H373   0.990       .  S
O331      Zr1593   2.436       .  S
O331       H1636   0.990       .  S
O331       H1640   0.991       .  S
Zr332      O1584   2.436       .  S
Zr332       O333   2.437       .  S
Zr332      O1598   2.436       .  S
Zr332      O1284   2.367       .  S
Zr332       O992   2.371       .  S
Zr332      O1626   2.373       .  S
O333       H1638   0.990       .  S
O333        H377   0.990       .  S
O334      Zr1596   2.435       .  S
O334       H1631   0.990   1_455  S
O335       Zr671   2.380       .  S
O336      Zr1593   2.366   1_554  S
O336      Zr1280   2.369       .  S
O336       Zr356   2.386       .  S
O337       Zr349   2.426       .  S
O337        C339   1.285       .  A
O338       Zr988   2.431   1_556  S
O338        C339   1.288       .  A
C339        C478   1.479       .  S
O340      Zr1616   2.428       .  S
O340        C342   1.286       .  A
O341       Zr355   2.433       .  S
O341        C342   1.289       .  A
C342        C526   1.482       .  S
O343       Zr352   2.438       .  S
O343        C345   1.287       .  A
O344       Zr672   2.423       .  S
O344        C345   1.287       .  A
C345        C445   1.477       .  S
O346      Zr1613   2.446       .  S
O346        C348   1.290       .  A
O347        C348   1.285       .  A
C348        C565   1.491       .  S
Zr349      O1610   2.434   1_455  S
Zr349       O350   2.434       .  S
Zr349       O351   2.433       .  S
Zr349      O1306   2.363   1_456  S
Zr349      O1625   2.370   1_455  S
Zr349       O991   2.374       .  S
O350        H370   0.990       .  S
O350        H375   0.990       .  S
O351        H371   0.990       .  S
Zr352      O1604   2.428   1_455  S
Zr352       O353   2.434       .  S
Zr352       O354   2.434   1_455  S
Zr352      O1622   2.369   1_455  S
Zr352       O357   2.367       .  S
Zr352       O994   2.368       .  S
Zr352      O1624   2.373   1_455  S
O353       H1633   0.990   1_455  S
O354        H368   0.990   1_655  S
O354        H378   0.991   1_655  S
Zr355       O634   2.434   1_545  S
Zr355       O956   2.407   1_545  S
Zr355       O651   2.378   1_545  S
Zr355       O358   2.374       .  S
Zr355       O360   2.386       .  S
Zr356       O970   2.432   1_554  S
Zr356       O660   2.425       .  S
Zr356       O673   2.379       .  S
Zr356       O359   2.384   1_554  S
O357       Zr672   2.379       .  S
O358      Zr1297   2.363       .  S
O358      Zr1616   2.373       .  S
O359      Zr1593   2.370       .  S
O359       Zr981   2.374       .  S
O360       Zr964   2.366   1_545  S
O360      Zr1616   2.369       .  S
O360        H364   0.967       .  S
O361       Zr961   2.373   1_545  S
O361      Zr1613   2.369       .  S
O361        H366   0.967       .  S
O362      Zr1596   2.376       .  S
O362       Zr984   2.371       .  S
H367       O1598   0.990       .  S
H369       O1617   0.990       .  S
H372       O1595   0.990       .  S
H374       O1597   0.990       .  S
H376       O1595   0.991       .  S
O379       Zr391   2.436       .  S
O379        C381   1.287       .  A
O380       Zr417   2.428       .  S
O380        C381   1.288       .  A
C381        C613   1.478       .  S
O382       Zr394   2.447       .  S
O382        C384   1.290       .  A
O383       Zr418   2.418       .  S
O383        C384   1.286       .  A
C384        C589   1.482       .  S
O385       Zr394   2.449       .  S
O385        C387   1.290       .  A
O386       Zr417   2.419       .  S
O386        C387   1.286       .  A
C387        C550   1.488       .  S
O388       Zr391   2.439       .  S
O388        C390   1.288       .  A
O389       Zr418   2.418       .  S
O389        C390   1.286       .  A
C390        C502   1.483       .  S
Zr391       O392   2.435       .  S
Zr391       O393   2.435       .  S
Zr391       O397   2.371       .  S
Zr391       O398   2.366       .  S
Zr391       O421   2.372       .  S
Zr391       O423   2.374       .  S
O392        H435   0.990       .  S
O393        H434   0.990       .  S
O393        H438   0.991       .  S
Zr394       O395   2.437       .  S
Zr394       O396   2.435       .  S
Zr394       O398   2.371       .  S
Zr394       O397   2.370       .  S
Zr394       O422   2.368       .  S
Zr394       O424   2.375       .  S
O395        H436   0.990       .  S
O395        H439   0.990       .  S
O396        H429   0.990       .  S
O397       Zr417   2.378       .  S
O398       Zr418   2.384       .  S
O398        H425   0.964       .  S
O399       Zr411   2.435       .  S
O399        C401   1.287       .  A
O400       Zr418   2.431       .  S
O400        C401   1.288       .  A
C401        C454   1.487       .  S
O402       Zr414   2.432       .  S
O402        C404   1.286       .  A
O403       Zr417   2.426       .  S
O403        C404   1.288       .  A
C404        C574   1.478       .  S
O405       Zr414   2.440       .  S
O405        C407   1.288       .  A
O406       Zr418   2.420       .  S
O406        C407   1.287       .  A
C407        C469   1.484       .  S
O408       Zr411   2.438       .  S
O408        C410   1.287       .  A
O409       Zr417   2.429       .  S
O409        C410   1.288       .  A
C410        C517   1.483       .  S
Zr411       O412   2.435       .  S
Zr411       O413   2.433       .  S
Zr411       O419   2.369       .  S
Zr411       O420   2.370       .  S
Zr411       O423   2.370       .  S
Zr411       O421   2.373       .  S
O412        H432   0.990       .  S
O412        H437   0.990       .  S
O413        H433   0.990       .  S
Zr414       O415   2.432       .  S
Zr414       O416   2.437       .  S
Zr414       O420   2.374       .  S
Zr414       O419   2.366       .  S
Zr414       O424   2.370       .  S
Zr414       O422   2.370       .  S
O415        H431   0.990       .  S
O416        H430   0.990       .  S
O416        H440   0.991       .  S
Zr417       O420   2.376       .  S
Zr417       O422   2.386       .  S
Zr417       O423   2.382       .  S
Zr418       O419   2.375       .  S
Zr418       O421   2.381       .  S
Zr418       O424   2.384       .  S
O419        H427   0.964       .  S
O422        H426   0.966       .  S
O423        H428   0.966       .  S
C441        C442   1.404       .  A
C441        C446   1.401       .  A
C441        H451   1.083       .  S
C442        C447   1.480       .  S
C442        C443   1.408       .  A
C443        C444   1.396       .  A
C443        O448   1.372       .  S
C444        C445   1.404       .  A
C444        H449   1.084       .  S
C445        C446   1.411       .  A
C446        O450   1.372       .  S
C447        C452   1.407       .  A
C447        C456   1.400       .  A
O448        H464   0.992       .  S
O450        H461   0.992       .  S
C452        C453   1.402       .  A
C452        O457   1.372       .  S
C453        C454   1.407       .  A
C453        H458   1.083       .  S
C454        C455   1.416       .  A
C455        C456   1.397       .  A
C455        O459   1.371       .  S
C456        H460   1.084       .  S
O457        H462   0.992       .  S
O459        H463   0.992       .  S
C465        C466   1.403       .  A
C465        C470   1.400       .  A
C465        H475   1.083       .  S
C466        C471   1.482       .  S
C466        C467   1.408       .  A
C467        C468   1.397       .  A
C467        O472   1.372       .  S
C468        C469   1.406       .  A
C468        H473   1.084       .  S
C469        C470   1.414       .  A
C470        O474   1.372       .  S
C471        C476   1.409       .  A
C471        C480   1.401       .  A
O472        H488   0.992       .  S
O474        H485   0.992       .  S
C476        C477   1.402       .  A
C476        O481   1.372       .  S
C477        C478   1.404       .  A
C477        H482   1.084       .  S
C478        C479   1.413       .  A
C479        C480   1.396       .  A
C479        O483   1.372       .  S
C480        H484   1.084       .  S
O481        H486   0.992       .  S
O483        H487   0.992       .  S
C489        C490   1.399       .  A
C489        C494   1.396       .  A
C489        H499   1.084       .  S
C490        C495   1.476       .  S
C490        C491   1.408       .  A
C491        C492   1.400       .  A
C491        O496   1.372       .  S
C492        C493   1.405       .  A
C492        H497   1.084       .  S
C493        C494   1.413       .  A
C494        O498   1.371       .  S
C495        C500   1.406       .  A
C495        C504   1.400       .  A
O496        H512   0.992       .  S
O498        H509   0.992       .  S
C500        C501   1.399       .  A
C500        O505   1.372       .  S
C501        C502   1.408       .  A
C501        H506   1.084       .  S
C502        C503   1.413       .  A
C503        C504   1.397       .  A
C503        O507   1.372       .  S
C504        H508   1.084       .  S
O505        H510   0.992       .  S
O507        H511   0.992       .  S
C513        C514   1.402       .  A
C513        C518   1.401       .  A
C513        H523   1.084       .  S
C514        C519   1.481       .  S
C514        C515   1.408       .  A
C515        C516   1.398       .  A
C515        O520   1.372       .  S
C516        C517   1.405       .  A
C516        H521   1.081       .  S
C517        C518   1.413       .  A
C518        O522   1.372       .  S
C519        C524   1.408       .  A
C519        C528   1.401       .  A
O520        H536   0.992       .  S
O522        H533   0.992       .  S
C524        C525   1.403       .  A
C524        O529   1.372       .  S
C525        C526   1.406       .  A
C525        H530   1.084       .  S
C526        C527   1.414       .  A
C527        C528   1.396       .  A
C527        O531   1.372       .  S
C528        H532   1.084       .  S
O529        H534   0.992       .  S
O531        H535   0.992       .  S
C537        C538   1.403       .  A
C537        C542   1.399       .  A
C537        H547   1.083       .  S
C538        C543   1.484       .  S
C538        C539   1.411       .  A
C539        C540   1.397       .  A
C539        O544   1.372       .  S
C540        C541   1.404       .  A
C540        H545   1.083       .  S
C541        C542   1.412       .  A
C542        O546   1.372       .  S
C543        C548   1.408       .  A
C543        C552   1.403       .  A
O544        H560   0.992       .  S
O546        H557   0.992       .  S
C548        C549   1.400       .  A
C548        O553   1.372       .  S
C549        C550   1.407       .  A
C549        H554   1.081       .  S
C550        C551   1.413       .  A
C551        C552   1.398       .  A
C551        O555   1.371       .  S
C552        H556   1.083       .  S
O553        H558   0.992       .  S
O555        H559   0.992       .  S
C561        C562   1.404       .  A
C561        C566   1.402       .  A
C561        H571   1.084       .  S
C562        C567   1.486       .  S
C562        C563   1.408       .  A
C563        C564   1.400       .  A
C563        O568   1.373       .  S
C564        C565   1.407       .  A
C564        H569   1.083       .  S
C565        C566   1.415       .  A
C566        O570   1.371       .  S
C567        C572   1.410       .  A
C567        C576   1.405       .  A
O568        H584   0.992       .  S
O570        H581   0.992       .  S
C572        C573   1.397       .  A
C572        O577   1.371       .  S
C573        C574   1.402       .  A
C573        H578   1.081       .  S
C574        C575   1.411       .  A
C575        C576   1.401       .  A
C575        O579   1.372       .  S
C576        H580   1.084       .  S
O577        H582   0.992       .  S
O579        H583   0.992       .  S
C585        C586   1.402       .  A
C585        C590   1.401       .  A
C585        H595   1.084       .  S
C586        C591   1.474       .  S
C586        C587   1.404       .  A
C587        C588   1.396       .  A
C587        O592   1.372       .  S
C588        C589   1.406       .  A
C588        H593   1.083       .  S
C589        C590   1.414       .  A
C590        O594   1.372       .  S
C591        C596   1.405       .  A
C591        C600   1.402       .  A
O592        H608   0.992       .  S
O594        H605   0.992       .  S
C596        C597   1.397       .  A
C596        O601   1.372       .  S
C597        C598   1.404       .  A
C597        H602   1.084       .  S
C598        C599   1.412       .  A
C599        C600   1.399       .  A
C599        O603   1.372       .  S
C600        H604   1.084       .  S
O601        H606   0.992       .  S
O603        H607   0.992       .  S
C609        C610   1.400       .  A
C609        C614   1.394       .  A
C609        H619   1.084       .  S
C610        C615   1.476       .  S
C610        C611   1.408       .  A
C611        C612   1.402       .  A
C611        O616   1.373       .  S
C612        C613   1.406       .  A
C612        H617   1.084       .  S
C613        C614   1.409       .  A
C614        O618   1.368       .  S
C615        C620   1.406       .  A
C615        C624   1.401       .  A
O616        H632   0.992       .  S
O618        H629   0.992       .  S
C620        C621   1.397       .  A
C620        O625   1.371       .  S
C621        C622   1.407       .  A
C621        H626   1.083       .  S
C622        C623   1.414       .  A
C623        C624   1.396       .  A
C623        O627   1.372       .  S
C624        H628   1.084       .  S
O625        H630   0.992       .  S
O627        H631   0.992       .  S
O633       Zr645   2.437       .  S
O633        C635   1.287       .  A
O634        C635   1.289       .  A
C635        C857   1.485       .  S
O636      Zr1912   2.432       .  S
O636        C638   1.287       .  A
O637       Zr988   2.429   1_565  S
O637        C638   1.288       .  A
C638        C809   1.482       .  S
O639       Zr648   2.439       .  S
O639        C641   1.288       .  A
O640        C641   1.285       .  A
C641        C938   1.483       .  S
O642      Zr1909   2.450       .  S
O642        C644   1.291       .  A
O643       Zr672   2.416   1_565  S
O643        C644   1.285       .  A
C644        C914   1.482       .  S
Zr645      O1906   2.446       .  S
Zr645       O646   2.436       .  S
Zr645      O1911   2.433       .  S
Zr645       O651   2.372       .  S
Zr645      O1916   2.364       .  S
Zr645      O1939   2.370   1_565  S
O646        H689   0.990       .  S
O647      Zr1909   2.434       .  S
O647       H1952   0.990       .  S
O647       H1956   0.991   1_455  S
Zr648      O1900   2.441       .  S
Zr648       O649   2.439       .  S
Zr648      O1914   2.433       .  S
Zr648      O2232   2.366       .  S
Zr648       O967   2.368   1_554  S
Zr648      O1942   2.375   1_565  S
O649       H1954   0.990       .  S
O649        H693   0.990       .  S
O650      Zr1912   2.434       .  S
O650       H1947   0.990   1_455  S
O651       Zr964   2.368       .  S
O652      Zr1909   2.364       .  S
O652      Zr2228   2.363       .  S
O652       Zr672   2.381   1_565  S
O652        H995   0.964       .  S
O653       Zr665   2.430       .  S
O653        C655   1.286       .  A
O654        C655   1.289       .  A
C655        C794   1.484       .  S
O656      Zr1932   2.425       .  S
O656        C658   1.286       .  A
O657       Zr671   2.432   1_554  S
O657        C658   1.289       .  A
C658        C842   1.480       .  S
O659       Zr668   2.433       .  S
O659        C661   1.286       .  A
O660        C661   1.288       .  A
C661        C761   1.477       .  S
O662      Zr1929   2.436       .  S
O662        C664   1.287       .  A
O663       Zr987   2.428       .  S
O663        C664   1.287       .  A
C664        C881   1.487       .  S
Zr665      O1926   2.440   1_455  S
Zr665       O666   2.435       .  S
Zr665       O667   2.434       .  S
Zr665       O989   2.372       .  S
Zr665      O2254   2.368   1_455  S
Zr665      O1941   2.366   1_455  S
O666        H686   0.990       .  S
O666        H691   0.990       .  S
O667        H687   0.990       .  S
Zr668      O1920   2.426   1_455  S
Zr668       O669   2.433       .  S
Zr668       O670   2.436   1_455  S
Zr668      O1938   2.370   1_455  S
Zr668       O673   2.369       .  S
Zr668      O1940   2.369   1_455  S
O669       H1949   0.990       .  S
O670        H684   0.990   1_655  S
O670        H694   0.990   1_655  S
Zr671       O979   2.423       .  S
Zr671       O674   2.373       .  S
Zr671       O676   2.384   1_556  S
Zr671       O993   2.387       .  S
Zr672       O953   2.421   1_545  S
Zr672       O675   2.383       .  S
Zr672       O994   2.379       .  S
O673       Zr981   2.371   1_554  S
O673        H997   0.964       .  S
O674      Zr2245   2.365       .  S
O674      Zr1932   2.373   1_556  S
O675      Zr1909   2.370   1_545  S
O676      Zr1932   2.370       .  S
O676        H680   0.966       .  S
O677      Zr1929   2.370       .  S
O677       Zr987   2.385       .  S
O677        H682   0.967       .  S
O678      Zr1912   2.377   1_545  S
O678       Zr988   2.385       .  S
H679        O968   0.964       .  S
H681        O989   0.964       .  S
H683       O1914   0.990       .  S
H685       O1933   0.990       .  S
H688       O1911   0.989       .  S
H690       O1913   0.990       .  S
H692       O1911   0.991       .  S
O695       Zr707   2.429       .  S
O695        C697   1.286       .  A
O696       Zr733   2.437       .  S
O696        C697   1.290       .  A
C697        C929   1.479       .  S
O698       Zr710   2.431       .  S
O698        C700   1.287       .  A
O699       Zr734   2.422       .  S
O699        C700   1.287       .  A
C700        C905   1.479       .  S
O701       Zr710   2.438       .  S
O701        C703   1.287       .  A
O702       Zr733   2.428       .  S
O702        C703   1.288       .  A
C703        C866   1.489       .  S
O704       Zr707   2.440       .  S
O704        C706   1.288       .  A
O705       Zr734   2.415       .  S
O705        C706   1.286       .  A
C706        C818   1.481       .  S
Zr707       O708   2.435       .  S
Zr707       O709   2.433       .  S
Zr707       O713   2.374       .  S
Zr707       O714   2.368       .  S
Zr707       O737   2.370       .  S
Zr707       O739   2.374       .  S
O708        H751   0.990       .  S
O709        H750   0.989       .  S
O709        H754   0.991       .  S
Zr710       O711   2.436       .  S
Zr710       O712   2.435       .  S
Zr710       O714   2.370       .  S
Zr710       O713   2.367       .  S
Zr710       O738   2.369       .  S
Zr710       O740   2.378       .  S
O711        H752   0.990       .  S
O711        H755   0.990       .  S
O712        H745   0.990       .  S
O713       Zr733   2.377       .  S
O714       Zr734   2.383       .  S
O714        H741   0.964       .  S
O715       Zr727   2.443       .  S
O715        C717   1.289       .  A
O716       Zr734   2.426       .  S
O716        C717   1.287       .  A
C717        C770   1.489       .  S
O718       Zr730   2.431       .  S
O718        C720   1.286       .  A
O719       Zr733   2.423       .  S
O719        C720   1.288       .  A
C720        C890   1.479       .  S
O721       Zr730   2.440       .  S
O721        C723   1.287       .  A
O722       Zr734   2.418       .  S
O722        C723   1.286       .  A
C723        C785   1.478       .  S
O724       Zr727   2.435       .  S
O724        C726   1.287       .  A
O725       Zr733   2.424       .  S
O725        C726   1.287       .  A
C726        C833   1.480       .  S
Zr727       O728   2.437       .  S
Zr727       O729   2.435       .  S
Zr727       O735   2.364       .  S
Zr727       O736   2.371       .  S
Zr727       O739   2.373       .  S
Zr727       O737   2.370       .  S
O728        H748   0.990       .  S
O728        H753   0.990       .  S
O729        H749   0.990       .  S
Zr730       O731   2.434       .  S
Zr730       O732   2.435       .  S
Zr730       O736   2.375       .  S
Zr730       O735   2.367       .  S
Zr730       O740   2.368       .  S
Zr730       O738   2.371       .  S
O731        H747   0.990       .  S
O732        H746   0.990       .  S
O732        H756   0.991       .  S
Zr733       O736   2.381       .  S
Zr733       O738   2.387       .  S
Zr733       O739   2.385       .  S
Zr734       O735   2.377       .  S
Zr734       O737   2.380       .  S
Zr734       O740   2.384       .  S
O735        H743   0.964       .  S
O738        H742   0.966       .  S
O739        H744   0.966       .  S
C757        C758   1.404       .  A
C757        C762   1.402       .  A
C757        H767   1.083       .  S
C758        C763   1.481       .  S
C758        C759   1.408       .  A
C759        C760   1.396       .  A
C759        O764   1.372       .  S
C760        C761   1.404       .  A
C760        H765   1.084       .  S
C761        C762   1.411       .  A
C762        O766   1.372       .  S
C763        C768   1.407       .  A
C763        C772   1.400       .  A
O764        H780   0.992       .  S
O766        H777   0.992       .  S
C768        C769   1.404       .  A
C768        O773   1.372       .  S
C769        C770   1.409       .  A
C769        H774   1.083       .  S
C770        C771   1.415       .  A
C771        C772   1.397       .  A
C771        O775   1.371       .  S
C772        H776   1.084       .  S
O773        H778   0.992       .  S
O775        H779   0.992       .  S
C781        C782   1.403       .  A
C781        C786   1.399       .  A
C781        H791   1.083       .  S
C782        C787   1.482       .  S
C782        C783   1.410       .  A
C783        C784   1.398       .  A
C783        O788   1.372       .  S
C784        C785   1.405       .  A
C784        H789   1.084       .  S
C785        C786   1.411       .  A
C786        O790   1.372       .  S
C787        C792   1.409       .  A
C787        C796   1.400       .  A
O788        H804   0.992       .  S
O790        H801   0.992       .  S
C792        C793   1.403       .  A
C792        O797   1.372       .  S
C793        C794   1.406       .  A
C793        H798   1.083       .  S
C794        C795   1.415       .  A
C795        C796   1.395       .  A
C795        O799   1.371       .  S
C796        H800   1.084       .  S
O797        H802   0.992       .  S
O799        H803   0.992       .  S
C805        C806   1.400       .  A
C805        C810   1.396       .  A
C805        H815   1.084       .  S
C806        C811   1.479       .  S
C806        C807   1.409       .  A
C807        C808   1.400       .  A
C807        O812   1.372       .  S
C808        C809   1.405       .  A
C808        H813   1.083       .  S
C809        C810   1.414       .  A
C810        O814   1.372       .  S
C811        C816   1.408       .  A
C811        C820   1.401       .  A
O812        H828   0.992       .  S
O814        H825   0.992       .  S
C816        C817   1.398       .  A
C816        O821   1.372       .  S
C817        C818   1.407       .  A
C817        H822   1.084       .  S
C818        C819   1.412       .  A
C819        C820   1.398       .  A
C819        O823   1.372       .  S
C820        H824   1.084       .  S
O821        H826   0.992       .  S
O823        H827   0.992       .  S
C829        C830   1.402       .  A
C829        C834   1.397       .  A
C829        H839   1.083       .  S
C830        C835   1.480       .  S
C830        C831   1.409       .  A
C831        C832   1.398       .  A
C831        O836   1.372       .  S
C832        C833   1.405       .  A
C832        H837   1.082       .  S
C833        C834   1.412       .  A
C834        O838   1.372       .  S
C835        C840   1.408       .  A
C835        C844   1.401       .  A
O836        H852   0.992       .  S
O838        H849   0.992       .  S
C840        C841   1.401       .  A
C840        O845   1.372       .  S
C841        C842   1.405       .  A
C841        H846   1.084       .  S
C842        C843   1.413       .  A
C843        C844   1.396       .  A
C843        O847   1.372       .  S
C844        H848   1.084       .  S
O845        H850   0.992       .  S
O847        H851   0.992       .  S
C853        C854   1.405       .  A
C853        C858   1.402       .  A
C853        H863   1.083       .  S
C854        C859   1.489       .  S
C854        C855   1.410       .  A
C855        C856   1.399       .  A
C855        O860   1.371       .  S
C856        C857   1.404       .  A
C856        H861   1.083       .  S
C857        C858   1.413       .  A
C858        O862   1.372       .  S
C859        C864   1.409       .  A
C859        C868   1.404       .  A
O860        H876   0.992       .  S
O862        H873   0.992       .  S
C864        C865   1.400       .  A
C864        O869   1.372       .  S
C865        C866   1.406       .  A
C865        H870   1.082       .  S
C866        C867   1.415       .  A
C867        C868   1.399       .  A
C867        O871   1.372       .  S
C868        H872   1.083       .  S
O869        H874   0.992       .  S
O871        H875   0.992       .  S
C877        C878   1.402       .  A
C877        C882   1.399       .  A
C877        H887   1.084       .  S
C878        C883   1.482       .  S
C878        C879   1.408       .  A
C879        C880   1.401       .  A
C879        O884   1.373       .  S
C880        C881   1.408       .  A
C880        H885   1.083       .  S
C881        C882   1.412       .  A
C882        O886   1.371       .  S
C883        C888   1.408       .  A
C883        C892   1.404       .  A
O884        H900   0.992       .  S
O886        H897   0.992       .  S
C888        C889   1.396       .  A
C888        O893   1.371       .  S
C889        C890   1.403       .  A
C889        H894   1.082       .  S
C890        C891   1.413       .  A
C891        C892   1.400       .  A
C891        O895   1.372       .  S
C892        H896   1.084       .  S
O893        H898   0.992       .  S
O895        H899   0.992       .  S
C901        C902   1.403       .  A
C901        C906   1.400       .  A
C901        H911   1.083       .  S
C902        C907   1.479       .  S
C902        C903   1.406       .  A
C903        C904   1.397       .  A
C903        O908   1.372       .  S
C904        C905   1.407       .  A
C904        H909   1.084       .  S
C905        C906   1.411       .  A
C906        O910   1.372       .  S
C907        C912   1.406       .  A
C907        C916   1.403       .  A
O908        H924   0.992       .  S
O910        H921   0.992       .  S
C912        C913   1.398       .  A
C912        O917   1.372       .  S
C913        C914   1.404       .  A
C913        H918   1.083       .  S
C914        C915   1.414       .  A
C915        C916   1.402       .  A
C915        O919   1.372       .  S
C916        H920   1.084       .  S
O917        H922   0.992       .  S
O919        H923   0.992       .  S
C925        C926   1.401       .  A
C925        C930   1.396       .  A
C925        H935   1.084       .  S
C926        C931   1.479       .  S
C926        C927   1.409       .  A
C927        C928   1.403       .  A
C927        O932   1.373       .  S
C928        C929   1.407       .  A
C928        H933   1.084       .  S
C929        C930   1.408       .  A
C930        O934   1.369       .  S
C931        C936   1.407       .  A
C931        C940   1.401       .  A
O932        H948   0.992       .  S
O934        H945   0.992       .  S
C936        C937   1.399       .  A
C936        O941   1.371       .  S
C937        C938   1.408       .  A
C937        H942   1.084       .  S
C938        C939   1.413       .  A
C939        C940   1.396       .  A
C939        O943   1.372       .  S
C940        H944   1.084       .  S
O941        H946   0.992       .  S
O943        H947   0.992       .  S
O949       Zr961   2.433       .  S
O949        C951   1.286       .  A
O950        C951   1.288       .  A
C951       C1173   1.482       .  S
O952      Zr2228   2.429       .  S
O952        C954   1.286       .  A
O953        C954   1.287       .  A
C954       C1125   1.477       .  S
O955       Zr964   2.443       .  S
O955        C957   1.289       .  A
O956        C957   1.284       .  A
C957       C1254   1.484       .  S
O958      Zr2225   2.444       .  S
O958        C960   1.289       .  A
O959       Zr988   2.415   1_566  S
O959        C960   1.285       .  A
C960       C1230   1.479       .  S
Zr961      O2222   2.440       .  S
Zr961       O962   2.434       .  S
Zr961      O2227   2.435       .  S
Zr961       O967   2.371       .  S
Zr961      O2232   2.361   1_556  S
Zr961      O2255   2.369   1_565  S
O962       H1005   0.990       .  S
O963      Zr2225   2.433       .  S
O963       H2268   0.989       .  S
O963       H2272   0.991       .  S
Zr964      O2216   2.446       .  S
Zr964       O965   2.435       .  S
Zr964      O2230   2.435       .  S
Zr964      O1916   2.368       .  S
Zr964      O2258   2.373   1_565  S
O965       H2270   0.990       .  S
O965       H1009   0.990       .  S
O966      Zr2228   2.434       .  S
O966       H2263   0.990       .  S
O968      Zr2225   2.365       .  S
O968      Zr1912   2.366   1_556  S
O968       Zr988   2.380   1_566  S
O969       Zr981   2.436       .  S
O969        C971   1.287       .  A
O970        C971   1.288       .  A
C971       C1110   1.487       .  S
O972      Zr2248   2.433       .  S
O972        C974   1.287       .  A
O973       Zr987   2.430       .  S
O973        C974   1.288       .  A
C974       C1158   1.482       .  S
O975       Zr984   2.438       .  S
O975        C977   1.287       .  A
O976        C977   1.287       .  A
C977       C1077   1.477       .  S
O978      Zr2245   2.441       .  S
O978        C980   1.288       .  A
O979        C980   1.286       .  A
C980       C1197   1.488       .  S
Zr981      O2242   2.440   1_455  S
Zr981       O982   2.435       .  S
Zr981       O983   2.434       .  S
Zr981      O1938   2.367   1_456  S
Zr981      O2257   2.370   1_455  S
O982       H1002   0.990       .  S
O982       H1007   0.990       .  S
O983       H1003   0.990       .  S
Zr984      O2236   2.433   1_455  S
Zr984       O985   2.435       .  S
Zr984       O986   2.435   1_455  S
Zr984      O2254   2.376   1_455  S
Zr984       O989   2.372       .  S
Zr984      O2256   2.368   1_455  S
O985       H2265   0.990       .  S
O986       H1000   0.990   1_655  S
O986       H1010   0.991   1_655  S
Zr987       O990   2.372       .  S
Zr987       O992   2.386       .  S
Zr988       O991   2.379   1_554  S
O990      Zr1929   2.366       .  S
O990      Zr2248   2.373       .  S
O991      Zr2225   2.367   1_545  S
O992      Zr2248   2.370       .  S
O992        H996   0.967       .  S
O993      Zr2245   2.370       .  S
O993        H998   0.967       .  S
O994      Zr2228   2.372   1_545  S
H999       O2230   0.990       .  S
H1001      O2249   0.990       .  S
H1004      O2227   0.989       .  S
H1006      O2229   0.990       .  S
H1008      O2227   0.991       .  S
O1011     Zr1023   2.432       .  S
O1011      C1013   1.286       .  A
O1012     Zr1049   2.426       .  S
O1012      C1013   1.287       .  A
C1013      C1245   1.475       .  S
O1014     Zr1026   2.441       .  S
O1014      C1016   1.288       .  A
O1015     Zr1050   2.419       .  S
O1015      C1016   1.286       .  A
C1016      C1221   1.482       .  S
O1017     Zr1026   2.444       .  S
O1017      C1019   1.289       .  A
O1018     Zr1049   2.422       .  S
O1018      C1019   1.287       .  A
C1019      C1182   1.488       .  S
O1020     Zr1023   2.430       .  S
O1020      C1022   1.286       .  A
O1021     Zr1050   2.420       .  S
O1021      C1022   1.287       .  A
C1022      C1134   1.481       .  S
Zr1023     O1024   2.433       .  S
Zr1023     O1025   2.434       .  S
Zr1023     O1029   2.373       .  S
Zr1023     O1030   2.370       .  S
Zr1023     O1053   2.372       .  S
Zr1023     O1055   2.367       .  S
O1024      H1067   0.990       .  S
O1025      H1066   0.989       .  S
O1025      H1070   0.991       .  S
Zr1026     O1027   2.435       .  S
Zr1026     O1028   2.437       .  S
Zr1026     O1030   2.371       .  S
Zr1026     O1029   2.374       .  S
Zr1026     O1054   2.366       .  S
Zr1026     O1056   2.374       .  S
O1027      H1068   0.990       .  S
O1027      H1071   0.990       .  S
O1028      H1061   0.990       .  S
O1029     Zr1049   2.377       .  S
O1030     Zr1050   2.383       .  S
O1030      H1057   0.964       .  S
O1031     Zr1043   2.446       .  S
O1031      C1033   1.289       .  A
O1032     Zr1050   2.432       .  S
O1032      C1033   1.288       .  A
C1033      C1086   1.492       .  S
O1034     Zr1046   2.431       .  S
O1034      C1036   1.286       .  A
O1035     Zr1049   2.416       .  S
O1035      C1036   1.286       .  A
C1036      C1206   1.475       .  S
O1037     Zr1046   2.441       .  S
O1037      C1039   1.288       .  A
O1038     Zr1050   2.414       .  S
O1038      C1039   1.285       .  A
C1039      C1101   1.478       .  S
O1040     Zr1043   2.435       .  S
O1040      C1042   1.287       .  A
O1041     Zr1049   2.428       .  S
O1041      C1042   1.288       .  A
C1042      C1149   1.482       .  S
Zr1043     O1044   2.437       .  S
Zr1043     O1045   2.436       .  S
Zr1043     O1051   2.365       .  S
Zr1043     O1052   2.370       .  S
Zr1043     O1055   2.374       .  S
Zr1043     O1053   2.372       .  S
O1044      H1064   0.990       .  S
O1044      H1069   0.990       .  S
O1045      H1065   0.990       .  S
Zr1046     O1047   2.431       .  S
Zr1046     O1048   2.434       .  S
Zr1046     O1052   2.371       .  S
Zr1046     O1051   2.363       .  S
Zr1046     O1056   2.368       .  S
Zr1046     O1054   2.368       .  S
O1047      H1063   0.990       .  S
O1048      H1062   0.990       .  S
O1048      H1072   0.991       .  S
Zr1049     O1052   2.376       .  S
Zr1049     O1054   2.386       .  S
Zr1049     O1055   2.381       .  S
Zr1050     O1051   2.377       .  S
Zr1050     O1053   2.381       .  S
Zr1050     O1056   2.385       .  S
O1051      H1059   0.964       .  S
O1054      H1058   0.966       .  S
O1055      H1060   0.965       .  S
C1073      C1074   1.405       .  A
C1073      C1078   1.401       .  A
C1073      H1083   1.083       .  S
C1074      C1079   1.485       .  S
C1074      C1075   1.410       .  A
C1075      C1076   1.398       .  A
C1075      O1080   1.372       .  S
C1076      C1077   1.403       .  A
C1076      H1081   1.084       .  S
C1077      C1078   1.411       .  A
C1078      O1082   1.372       .  S
C1079      C1084   1.408       .  A
C1079      C1088   1.401       .  A
O1080      H1096   0.992       .  S
O1082      H1093   0.992       .  S
C1084      C1085   1.404       .  A
C1084      O1089   1.372       .  S
C1085      C1086   1.408       .  A
C1085      H1090   1.083       .  S
C1086      C1087   1.416       .  A
C1087      C1088   1.398       .  A
C1087      O1091   1.371       .  S
C1088      H1092   1.084       .  S
O1089      H1094   0.992       .  S
O1091      H1095   0.992       .  S
C1097      C1098   1.404       .  A
C1097      C1102   1.399       .  A
C1097      H1107   1.083       .  S
C1098      C1103   1.484       .  S
C1098      C1099   1.410       .  A
C1099      C1100   1.398       .  A
C1099      O1104   1.372       .  S
C1100      C1101   1.406       .  A
C1100      H1105   1.084       .  S
C1101      C1102   1.410       .  A
C1102      O1106   1.372       .  S
C1103      C1108   1.409       .  A
C1103      C1112   1.400       .  A
O1104      H1120   0.992       .  S
O1106      H1117   0.992       .  S
C1108      C1109   1.404       .  A
C1108      O1113   1.372       .  S
C1109      C1110   1.406       .  A
C1109      H1114   1.083       .  S
C1110      C1111   1.415       .  A
C1111      C1112   1.397       .  A
C1111      O1115   1.371       .  S
C1112      H1116   1.084       .  S
O1113      H1118   0.992       .  S
O1115      H1119   0.992       .  S
C1121      C1122   1.400       .  A
C1121      C1126   1.394       .  A
C1121      H1131   1.084       .  S
C1122      C1127   1.478       .  S
C1122      C1123   1.409       .  A
C1123      C1124   1.399       .  A
C1123      O1128   1.372       .  S
C1124      C1125   1.404       .  A
C1124      H1129   1.084       .  S
C1125      C1126   1.413       .  A
C1126      O1130   1.372       .  S
C1127      C1132   1.407       .  A
C1127      C1136   1.401       .  A
O1128      H1144   0.992       .  S
O1130      H1141   0.992       .  S
C1132      C1133   1.396       .  A
C1132      O1137   1.372       .  S
C1133      C1134   1.406       .  A
C1133      H1138   1.084       .  S
C1134      C1135   1.414       .  A
C1135      C1136   1.398       .  A
C1135      O1139   1.372       .  S
C1136      H1140   1.084       .  S
O1137      H1142   0.992       .  S
O1139      H1143   0.992       .  S
C1145      C1146   1.402       .  A
C1145      C1150   1.399       .  A
C1145      H1155   1.083       .  S
C1146      C1151   1.483       .  S
C1146      C1147   1.410       .  A
C1147      C1148   1.398       .  A
C1147      O1152   1.372       .  S
C1148      C1149   1.404       .  A
C1148      H1153   1.082       .  S
C1149      C1150   1.413       .  A
C1150      O1154   1.372       .  S
C1151      C1156   1.409       .  A
C1151      C1160   1.402       .  A
O1152      H1168   0.992       .  S
O1154      H1165   0.992       .  S
C1156      C1157   1.402       .  A
C1156      O1161   1.372       .  S
C1157      C1158   1.406       .  A
C1157      H1162   1.084       .  S
C1158      C1159   1.412       .  A
C1159      C1160   1.396       .  A
C1159      O1163   1.372       .  S
C1160      H1164   1.084       .  S
O1161      H1166   0.992       .  S
O1163      H1167   0.992       .  S
C1169      C1170   1.403       .  A
C1169      C1174   1.399       .  A
C1169      H1179   1.083       .  S
C1170      C1175   1.487       .  S
C1170      C1171   1.411       .  A
C1171      C1172   1.398       .  A
C1171      O1176   1.372       .  S
C1172      C1173   1.404       .  A
C1172      H1177   1.083       .  S
C1173      C1174   1.412       .  A
C1174      O1178   1.372       .  S
C1175      C1180   1.410       .  A
C1175      C1184   1.403       .  A
O1176      H1192   0.992       .  S
O1178      H1189   0.992       .  S
C1180      C1181   1.399       .  A
C1180      O1185   1.372       .  S
C1181      C1182   1.407       .  A
C1181      H1186   1.082       .  S
C1182      C1183   1.413       .  A
C1183      C1184   1.398       .  A
C1183      O1187   1.371       .  S
C1184      H1188   1.083       .  S
O1185      H1190   0.992       .  S
O1187      H1191   0.992       .  S
C1193      C1194   1.404       .  A
C1193      C1198   1.402       .  A
C1193      H1203   1.084       .  S
C1194      C1199   1.484       .  S
C1194      C1195   1.407       .  A
C1195      C1196   1.399       .  A
C1195      O1200   1.373       .  S
C1196      C1197   1.407       .  A
C1196      H1201   1.083       .  S
C1197      C1198   1.414       .  A
C1198      O1202   1.372       .  S
C1199      C1204   1.409       .  A
C1199      C1208   1.405       .  A
O1200      H1216   0.992       .  S
O1202      H1213   0.992       .  S
C1204      C1205   1.396       .  A
C1204      O1209   1.371       .  S
C1205      C1206   1.402       .  A
C1205      H1210   1.082       .  S
C1206      C1207   1.411       .  A
C1207      C1208   1.400       .  A
C1207      O1211   1.372       .  S
C1208      H1212   1.084       .  S
O1209      H1214   0.992       .  S
O1211      H1215   0.992       .  S
C1217      C1218   1.403       .  A
C1217      C1222   1.400       .  A
C1217      H1227   1.083       .  S
C1218      C1223   1.481       .  S
C1218      C1219   1.407       .  A
C1219      C1220   1.398       .  A
C1219      O1224   1.372       .  S
C1220      C1221   1.407       .  A
C1220      H1225   1.084       .  S
C1221      C1222   1.412       .  A
C1222      O1226   1.372       .  S
C1223      C1228   1.407       .  A
C1223      C1232   1.403       .  A
O1224      H1240   0.992       .  S
O1226      H1237   0.992       .  S
C1228      C1229   1.399       .  A
C1228      O1233   1.372       .  S
C1229      C1230   1.404       .  A
C1229      H1234   1.084       .  S
C1230      C1231   1.412       .  A
C1231      C1232   1.400       .  A
C1231      O1235   1.372       .  S
C1232      H1236   1.084       .  S
O1233      H1238   0.992       .  S
O1235      H1239   0.992       .  S
C1241      C1242   1.403       .  A
C1241      C1246   1.396       .  A
C1241      H1251   1.084       .  S
C1242      C1247   1.480       .  S
C1242      C1243   1.409       .  A
C1243      C1244   1.401       .  A
C1243      O1248   1.373       .  S
C1244      C1245   1.404       .  A
C1244      H1249   1.084       .  S
C1245      C1246   1.407       .  A
C1246      O1250   1.370       .  S
C1247      C1252   1.408       .  A
C1247      C1256   1.401       .  A
O1248      H1264   0.992       .  S
O1250      H1261   0.992       .  S
C1252      C1253   1.399       .  A
C1252      O1257   1.372       .  S
C1253      C1254   1.408       .  A
C1253      H1258   1.083       .  S
C1254      C1255   1.413       .  A
C1255      C1256   1.396       .  A
C1255      O1259   1.371       .  S
C1256      H1260   1.084       .  S
O1257      H1262   0.992       .  S
O1259      H1263   0.992       .  S
O1265     Zr1277   2.429   1_655  S
O1265      C1267   1.286       .  A
O1266     Zr2251   2.425       .  S
O1266      C1267   1.288       .  A
C1267      C1489   1.477       .  S
O1268      C1270   1.287       .  A
O1269     Zr1620   2.442       .  S
O1269      C1270   1.290       .  A
C1270      C1441   1.487       .  S
O1271     Zr1280   2.452   1_655  S
O1271      C1273   1.290       .  A
O1272     Zr1935   2.409   1_554  S
O1272      C1273   1.284       .  A
C1273      C1570   1.488       .  S
O1274      C1276   1.290       .  A
O1275     Zr1304   2.410       .  S
O1275      C1276   1.284       .  A
C1276      C1546   1.478       .  S
Zr1277     O1278   2.433       .  S
Zr1277     O1283   2.371   1_455  S
Zr1277     O1941   2.374   1_455  S
O1278      H1321   0.990       .  S
Zr1280     O1281   2.434       .  S
Zr1280     O1599   2.366   1_454  S
Zr1280     O1940   2.368   1_455  S
O1281      H1325   0.990       .  S
O1283     Zr1596   2.365   1_655  S
O1283     Zr2251   2.379       .  S
O1284     Zr1304   2.383       .  S
O1284      H1627   0.964       .  S
O1285     Zr1297   2.430       .  S
O1285      C1287   1.286       .  A
O1286     Zr1936   2.434       .  S
O1286      C1287   1.289       .  A
C1287      C1426   1.482       .  S
O1288      C1290   1.286       .  A
O1289     Zr1303   2.428   1_554  S
O1289      C1290   1.288       .  A
C1290      C1474   1.480       .  S
O1291     Zr1300   2.443       .  S
O1291      C1293   1.288       .  A
O1292     Zr2252   2.423       .  S
O1292      C1293   1.287       .  A
C1293      C1393   1.481       .  S
O1294      C1296   1.289       .  A
O1295     Zr1619   2.421       .  S
O1295      C1296   1.286       .  A
C1296      C1513   1.486       .  S
Zr1297     O1298   2.436       .  S
Zr1297     O1299   2.433       .  S
Zr1297     O1621   2.372       .  S
Zr1297     O1939   2.380       .  S
O1298      H1318   0.990       .  S
O1298      H1323   0.990       .  S
O1299      H1319   0.990       .  S
Zr1300     O1301   2.434       .  S
Zr1300     O1302   2.437       .  S
Zr1300     O1305   2.369       .  S
Zr1300     O1942   2.371       .  S
O1302      H1316   0.990       .  S
O1302      H1326   0.990       .  S
Zr1303     O2214   2.424   1_545  S
Zr1303     O1904   2.417   1_546  S
Zr1303     O1611   2.419       .  S
Zr1303     O2231   2.375   1_545  S
Zr1303     O1306   2.374   1_556  S
Zr1303     O1308   2.386   1_546  S
Zr1303     O1625   2.383       .  S
Zr1304     O1585   2.425       .  S
Zr1304     O1918   2.432       .  S
Zr1304     O2240   2.414       .  S
Zr1304     O2253   2.379       .  S
Zr1304     O1307   2.384       .  S
Zr1304     O1626   2.383       .  S
O1305     Zr1613   2.374   1_554  S
O1305     Zr2252   2.381       .  S
O1305      H1629   0.964       .  S
O1307     Zr1929   2.377       .  S
O1308     Zr1912   2.370   1_655  S
O1308      H1312   0.967       .  S
O1309     Zr1909   2.373   1_645  S
O1309     Zr1619   2.386       .  S
O1309      H1314   0.967       .  S
O1310     Zr1932   2.370       .  S
O1310     Zr1620   2.379       .  S
H1311      O1600   0.964       .  S
H1313      O1621   0.964       .  S
O1327     Zr1339   2.420       .  S
O1327      C1329   1.284       .  A
O1328     Zr1365   2.429       .  S
O1328      C1329   1.288       .  A
C1329      C1561   1.471       .  S
O1330     Zr1342   2.442       .  S
O1330      C1332   1.289       .  A
O1331     Zr1366   2.422       .  S
O1331      C1332   1.286       .  A
C1332      C1537   1.485       .  S
O1333     Zr1342   2.442       .  S
O1333      C1335   1.289       .  A
O1334     Zr1365   2.421       .  S
O1334      C1335   1.287       .  A
C1335      C1498   1.487       .  S
O1336     Zr1339   2.431       .  S
O1336      C1338   1.286       .  A
O1337     Zr1366   2.423       .  S
O1337      C1338   1.287       .  A
C1338      C1450   1.481       .  S
Zr1339     O1340   2.434       .  S
Zr1339     O1341   2.434       .  S
Zr1339     O1345   2.371       .  S
Zr1339     O1346   2.367       .  S
Zr1339     O1369   2.367       .  S
Zr1339     O1371   2.370       .  S
O1340      H1383   0.990       .  S
O1341      H1382   0.990       .  S
O1341      H1386   0.991       .  S
Zr1342     O1343   2.436       .  S
Zr1342     O1344   2.434       .  S
Zr1342     O1346   2.370       .  S
Zr1342     O1345   2.367       .  S
Zr1342     O1370   2.371       .  S
Zr1342     O1372   2.373       .  S
O1343      H1384   0.990       .  S
O1343      H1387   0.990       .  S
O1344      H1377   0.990       .  S
O1345     Zr1365   2.376       .  S
O1346     Zr1366   2.381       .  S
O1346      H1373   0.964       .  S
O1347     Zr1359   2.443       .  S
O1347      C1349   1.289       .  A
O1348     Zr1366   2.432       .  S
O1348      C1349   1.289       .  A
C1349      C1402   1.490       .  S
O1350     Zr1362   2.435       .  S
O1350      C1352   1.287       .  A
O1351     Zr1365   2.424       .  S
O1351      C1352   1.287       .  A
C1352      C1522   1.478       .  S
O1353     Zr1362   2.437       .  S
O1353      C1355   1.287       .  A
O1354     Zr1366   2.418       .  S
O1354      C1355   1.287       .  A
C1355      C1417   1.481       .  S
O1356     Zr1359   2.442       .  S
O1356      C1358   1.288       .  A
O1357     Zr1365   2.421       .  S
O1357      C1358   1.287       .  A
C1358      C1465   1.482       .  S
Zr1359     O1360   2.435       .  S
Zr1359     O1361   2.433       .  S
Zr1359     O1367   2.368       .  S
Zr1359     O1368   2.370       .  S
Zr1359     O1371   2.368       .  S
Zr1359     O1369   2.371       .  S
O1360      H1380   0.990       .  S
O1360      H1385   0.990       .  S
O1361      H1381   0.990       .  S
Zr1362     O1363   2.432       .  S
Zr1362     O1364   2.436       .  S
Zr1362     O1368   2.372       .  S
Zr1362     O1367   2.370       .  S
Zr1362     O1372   2.369       .  S
Zr1362     O1370   2.367       .  S
O1363      H1379   0.990       .  S
O1364      H1378   0.990       .  S
O1364      H1388   0.991       .  S
Zr1365     O1368   2.376       .  S
Zr1365     O1370   2.384       .  S
Zr1365     O1371   2.384       .  S
Zr1366     O1367   2.380       .  S
Zr1366     O1369   2.379       .  S
Zr1366     O1372   2.383       .  S
O1367      H1375   0.964       .  S
O1370      H1374   0.966       .  S
O1371      H1376   0.966       .  S
C1389      C1390   1.405       .  A
C1389      C1394   1.404       .  A
C1389      H1399   1.084       .  S
C1390      C1395   1.484       .  S
C1390      C1391   1.407       .  A
C1391      C1392   1.397       .  A
C1391      O1396   1.371       .  S
C1392      C1393   1.404       .  A
C1392      H1397   1.084       .  S
C1393      C1394   1.412       .  A
C1394      O1398   1.372       .  S
C1395      C1400   1.408       .  A
C1395      C1404   1.401       .  A
O1396      H1412   0.992       .  S
O1398      H1409   0.992       .  S
C1400      C1401   1.405       .  A
C1400      O1405   1.372       .  S
C1401      C1402   1.408       .  A
C1401      H1406   1.083       .  S
C1402      C1403   1.415       .  A
C1403      C1404   1.398       .  A
C1403      O1407   1.371       .  S
C1404      H1408   1.084       .  S
O1405      H1410   0.992       .  S
O1407      H1411   0.992       .  S
C1413      C1414   1.403       .  A
C1413      C1418   1.399       .  A
C1413      H1423   1.083       .  S
C1414      C1419   1.482       .  S
C1414      C1415   1.408       .  A
C1415      C1416   1.397       .  A
C1415      O1420   1.372       .  S
C1416      C1417   1.406       .  A
C1416      H1421   1.084       .  S
C1417      C1418   1.413       .  A
C1418      O1422   1.372       .  S
C1419      C1424   1.409       .  A
C1419      C1428   1.401       .  A
O1420      H1436   0.992       .  S
O1422      H1433   0.992       .  S
C1424      C1425   1.402       .  A
C1424      O1429   1.372       .  S
C1425      C1426   1.405       .  A
C1425      H1430   1.084       .  S
C1426      C1427   1.414       .  A
C1427      C1428   1.397       .  A
C1427      O1431   1.372       .  S
C1428      H1432   1.084       .  S
O1429      H1434   0.992       .  S
O1431      H1435   0.992       .  S
C1437      C1438   1.399       .  A
C1437      C1442   1.397       .  A
C1437      H1447   1.084       .  S
C1438      C1443   1.480       .  S
C1438      C1439   1.408       .  A
C1439      C1440   1.403       .  A
C1439      O1444   1.372       .  S
C1440      C1441   1.407       .  A
C1440      H1445   1.083       .  S
C1441      C1442   1.415       .  A
C1442      O1446   1.371       .  S
C1443      C1448   1.407       .  A
C1443      C1452   1.402       .  A
O1444      H1460   0.992       .  S
O1446      H1457   0.992       .  S
C1448      C1449   1.397       .  A
C1448      O1453   1.371       .  S
C1449      C1450   1.406       .  A
C1449      H1454   1.084       .  S
C1450      C1451   1.413       .  A
C1451      C1452   1.400       .  A
C1451      O1455   1.372       .  S
C1452      H1456   1.084       .  S
O1453      H1458   0.992       .  S
O1455      H1459   0.992       .  S
C1461      C1462   1.402       .  A
C1461      C1466   1.398       .  A
C1461      H1471   1.083       .  S
C1462      C1467   1.480       .  S
C1462      C1463   1.409       .  A
C1463      C1464   1.399       .  A
C1463      O1468   1.372       .  S
C1464      C1465   1.405       .  A
C1464      H1469   1.082       .  S
C1465      C1466   1.412       .  A
C1466      O1470   1.372       .  S
C1467      C1472   1.409       .  A
C1467      C1476   1.401       .  A
O1468      H1484   0.992       .  S
O1470      H1481   0.992       .  S
C1472      C1473   1.401       .  A
C1472      O1477   1.372       .  S
C1473      C1474   1.405       .  A
C1473      H1478   1.084       .  S
C1474      C1475   1.414       .  A
C1475      C1476   1.396       .  A
C1475      O1479   1.372       .  S
C1476      H1480   1.084       .  S
O1477      H1482   0.992       .  S
O1479      H1483   0.992       .  S
C1485      C1486   1.404       .  A
C1485      C1490   1.399       .  A
C1485      H1495   1.083       .  S
C1486      C1491   1.485       .  S
C1486      C1487   1.410       .  A
C1487      C1488   1.398       .  A
C1487      O1492   1.371       .  S
C1488      C1489   1.402       .  A
C1488      H1493   1.083       .  S
C1489      C1490   1.412       .  A
C1490      O1494   1.372       .  S
C1491      C1496   1.408       .  A
C1491      C1500   1.403       .  A
O1492      H1508   0.992       .  S
O1494      H1505   0.992       .  S
C1496      C1497   1.399       .  A
C1496      O1501   1.372       .  S
C1497      C1498   1.407       .  A
C1497      H1502   1.082       .  S
C1498      C1499   1.413       .  A
C1499      C1500   1.398       .  A
C1499      O1503   1.372       .  S
C1500      H1504   1.084       .  S
O1501      H1506   0.992       .  S
O1503      H1507   0.992       .  S
C1509      C1510   1.402       .  A
C1509      C1514   1.399       .  A
C1509      H1519   1.084       .  S
C1510      C1515   1.482       .  S
C1510      C1511   1.408       .  A
C1511      C1512   1.400       .  A
C1511      O1516   1.373       .  S
C1512      C1513   1.407       .  A
C1512      H1517   1.083       .  S
C1513      C1514   1.414       .  A
C1514      O1518   1.371       .  S
C1515      C1520   1.408       .  A
C1515      C1524   1.405       .  A
O1516      H1532   0.992       .  S
O1518      H1529   0.992       .  S
C1520      C1521   1.396       .  A
C1520      O1525   1.371       .  S
C1521      C1522   1.403       .  A
C1521      H1526   1.081       .  S
C1522      C1523   1.411       .  A
C1523      C1524   1.400       .  A
C1523      O1527   1.372       .  S
C1524      H1528   1.084       .  S
O1525      H1530   0.992       .  S
O1527      H1531   0.992       .  S
C1533      C1534   1.403       .  A
C1533      C1538   1.400       .  A
C1533      H1543   1.083       .  S
C1534      C1539   1.481       .  S
C1534      C1535   1.407       .  A
C1535      C1536   1.397       .  A
C1535      O1540   1.372       .  S
C1536      C1537   1.407       .  A
C1536      H1541   1.083       .  S
C1537      C1538   1.413       .  A
C1538      O1542   1.372       .  S
C1539      C1544   1.407       .  A
C1539      C1548   1.404       .  A
O1540      H1556   0.992       .  S
O1542      H1553   0.992       .  S
C1544      C1545   1.397       .  A
C1544      O1549   1.372       .  S
C1545      C1546   1.404       .  A
C1545      H1550   1.084       .  S
C1546      C1547   1.412       .  A
C1547      C1548   1.400       .  A
C1547      O1551   1.372       .  S
C1548      H1552   1.084       .  S
O1549      H1554   0.992       .  S
O1551      H1555   0.992       .  S
C1557      C1558   1.403       .  A
C1557      C1562   1.395       .  A
C1557      H1567   1.084       .  S
C1558      C1563   1.480       .  S
C1558      C1559   1.409       .  A
C1559      C1560   1.400       .  A
C1559      O1564   1.372       .  S
C1560      C1561   1.404       .  A
C1560      H1565   1.084       .  S
C1561      C1562   1.406       .  A
C1562      O1566   1.370       .  S
C1563      C1568   1.408       .  A
C1563      C1572   1.401       .  A
O1564      H1580   0.992       .  S
O1566      H1577   0.992       .  S
C1568      C1569   1.400       .  A
C1568      O1573   1.372       .  S
C1569      C1570   1.410       .  A
C1569      H1574   1.083       .  S
C1570      C1571   1.414       .  A
C1571      C1572   1.396       .  A
C1571      O1575   1.371       .  S
C1572      H1576   1.084       .  S
O1573      H1578   0.992       .  S
O1575      H1579   0.992       .  S
O1581     Zr1593   2.439   1_655  S
O1581      C1583   1.288       .  A
O1582     Zr1935   2.427       .  S
O1582      C1583   1.288       .  A
C1583      C1805   1.482       .  S
O1584      C1586   1.287       .  A
O1585      C1586   1.287       .  A
C1586      C1757   1.479       .  S
O1587     Zr1596   2.443   1_655  S
O1587      C1589   1.288       .  A
O1588     Zr2251   2.416       .  S
O1588      C1589   1.286       .  A
C1589      C1886   1.488       .  S
O1590      C1592   1.290       .  A
O1591     Zr1620   2.408   1_556  S
O1591      C1592   1.284       .  A
C1592      C1862   1.476       .  S
Zr1593     O1594   2.433       .  S
Zr1593     O1599   2.369   1_455  S
Zr1593     O2257   2.371   1_455  S
O1594      H1637   0.990       .  S
Zr1596     O1597   2.435       .  S
Zr1596     O2256   2.369   1_455  S
O1597      H1641   0.990       .  S
O1599     Zr1935   2.376       .  S
O1600     Zr1620   2.385   1_556  S
O1601     Zr1613   2.432       .  S
O1601      C1603   1.287       .  A
O1602     Zr2252   2.433   1_556  S
O1602      C1603   1.289       .  A
C1603      C1742   1.483       .  S
O1604      C1606   1.286       .  A
O1605     Zr1619   2.433       .  S
O1605      C1606   1.289       .  A
C1606      C1790   1.482       .  S
O1607     Zr1616   2.441       .  S
O1607      C1609   1.288       .  A
O1608     Zr1936   2.422       .  S
O1608      C1609   1.287       .  A
C1609      C1709   1.478       .  S
O1610      C1612   1.287       .  A
O1611      C1612   1.286       .  A
C1612      C1829   1.485       .  S
Zr1613     O1614   2.435       .  S
Zr1613     O1615   2.434       .  S
Zr1613     O2255   2.379       .  S
O1614      H1634   0.990       .  S
O1614      H1639   0.990       .  S
O1615      H1635   0.990       .  S
Zr1616     O1617   2.437       .  S
Zr1616     O1618   2.436       .  S
Zr1616     O1621   2.368       .  S
Zr1616     O2258   2.370       .  S
O1618      H1632   0.989       .  S
O1618      H1642   0.991       .  S
Zr1619     O1898   2.429   1_545  S
Zr1619     O2220   2.423   1_545  S
Zr1619     O1915   2.375   1_545  S
Zr1619     O1622   2.374       .  S
Zr1619     O1624   2.384       .  S
Zr1620     O2234   2.434   1_554  S
Zr1620     O1924   2.424       .  S
Zr1620     O1937   2.379       .  S
Zr1620     O1623   2.391   1_554  S
O1621     Zr1936   2.381       .  S
O1623     Zr2245   2.379       .  S
O1624     Zr2228   2.369   1_645  S
O1624      H1628   0.967   1_545  S
O1625     Zr2225   2.371   1_645  S
O1625      H1630   0.967       .  S
O1626     Zr2248   2.369       .  S
O1643     Zr1655   2.431       .  S
O1643      C1645   1.286       .  A
O1644     Zr1681   2.422       .  S
O1644      C1645   1.287       .  A
C1645      C1877   1.473       .  S
O1646     Zr1658   2.437       .  S
O1646      C1648   1.288       .  A
O1647     Zr1682   2.428       .  S
O1647      C1648   1.287       .  A
C1648      C1853   1.486       .  S
O1649     Zr1658   2.440       .  S
O1649      C1651   1.288       .  A
O1650     Zr1681   2.423       .  S
O1650      C1651   1.287       .  A
C1651      C1814   1.486       .  S
O1652     Zr1655   2.439       .  S
O1652      C1654   1.288       .  A
O1653     Zr1682   2.422       .  S
O1653      C1654   1.287       .  A
C1654      C1766   1.483       .  S
Zr1655     O1656   2.435       .  S
Zr1655     O1657   2.433       .  S
Zr1655     O1661   2.372       .  S
Zr1655     O1662   2.370       .  S
Zr1655     O1685   2.366       .  S
Zr1655     O1687   2.369       .  S
O1656      H1699   0.990       .  S
O1657      H1698   0.989       .  S
O1657      H1702   0.991       .  S
Zr1658     O1659   2.437       .  S
Zr1658     O1660   2.432       .  S
Zr1658     O1662   2.368       .  S
Zr1658     O1661   2.365       .  S
Zr1658     O1686   2.373       .  S
Zr1658     O1688   2.377       .  S
O1659      H1700   0.990       .  S
O1659      H1703   0.990       .  S
O1660      H1693   0.990       .  S
O1661     Zr1681   2.379       .  S
O1662     Zr1682   2.383       .  S
O1662      H1689   0.964       .  S
O1663     Zr1675   2.442       .  S
O1663      C1665   1.288       .  A
O1664     Zr1682   2.421       .  S
O1664      C1665   1.286       .  A
C1665      C1718   1.486       .  S
O1666     Zr1678   2.438       .  S
O1666      C1668   1.287       .  A
O1667     Zr1681   2.417       .  S
O1667      C1668   1.286       .  A
C1668      C1838   1.477       .  S
O1669     Zr1678   2.437       .  S
O1669      C1671   1.287       .  A
O1670     Zr1682   2.418       .  S
O1670      C1671   1.286       .  A
C1671      C1733   1.480       .  S
O1672     Zr1675   2.436       .  S
O1672      C1674   1.287       .  A
O1673     Zr1681   2.430       .  S
O1673      C1674   1.288       .  A
C1674      C1781   1.483       .  S
Zr1675     O1676   2.434       .  S
Zr1675     O1677   2.434       .  S
Zr1675     O1683   2.367       .  S
Zr1675     O1684   2.371       .  S
Zr1675     O1687   2.369       .  S
Zr1675     O1685   2.369       .  S
O1676      H1696   0.990       .  S
O1676      H1701   0.990       .  S
O1677      H1697   0.990       .  S
Zr1678     O1679   2.433       .  S
Zr1678     O1680   2.434       .  S
Zr1678     O1684   2.371       .  S
Zr1678     O1683   2.367       .  S
Zr1678     O1688   2.371       .  S
Zr1678     O1686   2.367       .  S
O1679      H1695   0.990       .  S
O1680      H1694   0.990       .  S
O1680      H1704   0.991       .  S
Zr1681     O1684   2.377       .  S
Zr1681     O1686   2.385       .  S
Zr1681     O1687   2.385       .  S
Zr1682     O1683   2.383       .  S
Zr1682     O1685   2.381       .  S
Zr1682     O1688   2.383       .  S
O1683      H1691   0.964       .  S
O1686      H1690   0.966       .  S
O1687      H1692   0.966       .  S
C1705      C1706   1.404       .  A
C1705      C1710   1.402       .  A
C1705      H1715   1.083       .  S
C1706      C1711   1.480       .  S
C1706      C1707   1.408       .  A
C1707      C1708   1.396       .  A
C1707      O1712   1.372       .  S
C1708      C1709   1.404       .  A
C1708      H1713   1.084       .  S
C1709      C1710   1.412       .  A
C1710      O1714   1.372       .  S
C1711      C1716   1.407       .  A
C1711      C1720   1.400       .  A
O1712      H1728   0.992       .  S
O1714      H1725   0.992       .  S
C1716      C1717   1.402       .  A
C1716      O1721   1.372       .  S
C1717      C1718   1.409       .  A
C1717      H1722   1.083       .  S
C1718      C1719   1.414       .  A
C1719      C1720   1.395       .  A
C1719      O1723   1.371       .  S
C1720      H1724   1.084       .  S
O1721      H1726   0.992       .  S
O1723      H1727   0.992       .  S
C1729      C1730   1.403       .  A
C1729      C1734   1.400       .  A
C1729      H1739   1.083       .  S
C1730      C1735   1.481       .  S
C1730      C1731   1.408       .  A
C1731      C1732   1.397       .  A
C1731      O1736   1.372       .  S
C1732      C1733   1.405       .  A
C1732      H1737   1.084       .  S
C1733      C1734   1.413       .  A
C1734      O1738   1.372       .  S
C1735      C1740   1.409       .  A
C1735      C1744   1.400       .  A
O1736      H1752   0.992       .  S
O1738      H1749   0.992       .  S
C1740      C1741   1.403       .  A
C1740      O1745   1.372       .  S
C1741      C1742   1.406       .  A
C1741      H1746   1.084       .  S
C1742      C1743   1.413       .  A
C1743      C1744   1.396       .  A
C1743      O1747   1.372       .  S
C1744      H1748   1.084       .  S
O1745      H1750   0.992       .  S
O1747      H1751   0.992       .  S
C1753      C1754   1.400       .  A
C1753      C1758   1.396       .  A
C1753      H1763   1.084       .  S
C1754      C1759   1.479       .  S
C1754      C1755   1.409       .  A
C1755      C1756   1.401       .  A
C1755      O1760   1.372       .  S
C1756      C1757   1.405       .  A
C1756      H1761   1.084       .  S
C1757      C1758   1.413       .  A
C1758      O1762   1.372       .  S
C1759      C1764   1.407       .  A
C1759      C1768   1.401       .  A
O1760      H1776   0.992       .  S
O1762      H1773   0.992       .  S
C1764      C1765   1.399       .  A
C1764      O1769   1.372       .  S
C1765      C1766   1.407       .  A
C1765      H1770   1.084       .  S
C1766      C1767   1.414       .  A
C1767      C1768   1.399       .  A
C1767      O1771   1.372       .  S
C1768      H1772   1.084       .  S
O1769      H1774   0.992       .  S
O1771      H1775   0.992       .  S
C1777      C1778   1.403       .  A
C1777      C1782   1.401       .  A
C1777      H1787   1.083       .  S
C1778      C1783   1.484       .  S
C1778      C1779   1.409       .  A
C1779      C1780   1.399       .  A
C1779      O1784   1.372       .  S
C1780      C1781   1.404       .  A
C1780      H1785   1.081       .  S
C1781      C1782   1.413       .  A
C1782      O1786   1.372       .  S
C1783      C1788   1.409       .  A
C1783      C1792   1.402       .  A
O1784      H1800   0.992       .  S
O1786      H1797   0.992       .  S
C1788      C1789   1.402       .  A
C1788      O1793   1.372       .  S
C1789      C1790   1.405       .  A
C1789      H1794   1.084       .  S
C1790      C1791   1.414       .  A
C1791      C1792   1.396       .  A
C1791      O1795   1.372       .  S
C1792      H1796   1.084       .  S
O1793      H1798   0.992       .  S
O1795      H1799   0.992       .  S
C1801      C1802   1.404       .  A
C1801      C1806   1.400       .  A
C1801      H1811   1.083       .  S
C1802      C1807   1.486       .  S
C1802      C1803   1.410       .  A
C1803      C1804   1.400       .  A
C1803      O1808   1.372       .  S
C1804      C1805   1.404       .  A
C1804      H1809   1.083       .  S
C1805      C1806   1.412       .  A
C1806      O1810   1.372       .  S
C1807      C1812   1.409       .  A
C1807      C1816   1.404       .  A
O1808      H1824   0.992       .  S
O1810      H1821   0.992       .  S
C1812      C1813   1.398       .  A
C1812      O1817   1.372       .  S
C1813      C1814   1.406       .  A
C1813      H1818   1.082       .  S
C1814      C1815   1.413       .  A
C1815      C1816   1.399       .  A
C1815      O1819   1.372       .  S
C1816      H1820   1.083       .  S
O1817      H1822   0.992       .  S
O1819      H1823   0.992       .  S
C1825      C1826   1.402       .  A
C1825      C1830   1.399       .  A
C1825      H1835   1.084       .  S
C1826      C1831   1.481       .  S
C1826      C1827   1.407       .  A
C1827      C1828   1.399       .  A
C1827      O1832   1.373       .  S
C1828      C1829   1.407       .  A
C1828      H1833   1.083       .  S
C1829      C1830   1.413       .  A
C1830      O1834   1.371       .  S
C1831      C1836   1.408       .  A
C1831      C1840   1.404       .  A
O1832      H1848   0.992       .  S
O1834      H1845   0.992       .  S
C1836      C1837   1.397       .  A
C1836      O1841   1.372       .  S
C1837      C1838   1.404       .  A
C1837      H1842   1.081       .  S
C1838      C1839   1.410       .  A
C1839      C1840   1.399       .  A
C1839      O1843   1.372       .  S
C1840      H1844   1.084       .  S
O1841      H1846   0.992       .  S
O1843      H1847   0.992       .  S
C1849      C1850   1.403       .  A
C1849      C1854   1.400       .  A
C1849      H1859   1.083       .  S
C1850      C1855   1.481       .  S
C1850      C1851   1.407       .  A
C1851      C1852   1.398       .  A
C1851      O1856   1.372       .  S
C1852      C1853   1.408       .  A
C1852      H1857   1.083       .  S
C1853      C1854   1.412       .  A
C1854      O1858   1.372       .  S
C1855      C1860   1.408       .  A
C1855      C1864   1.404       .  A
O1856      H1872   0.992       .  S
O1858      H1869   0.992       .  S
C1860      C1861   1.396       .  A
C1860      O1865   1.372       .  S
C1861      C1862   1.402       .  A
C1861      H1866   1.084       .  S
C1862      C1863   1.412       .  A
C1863      C1864   1.400       .  A
C1863      O1867   1.372       .  S
C1864      H1868   1.084       .  S
O1865      H1870   0.992       .  S
O1867      H1871   0.992       .  S
C1873      C1874   1.404       .  A
C1873      C1878   1.397       .  A
C1873      H1883   1.084       .  S
C1874      C1879   1.481       .  S
C1874      C1875   1.409       .  A
C1875      C1876   1.399       .  A
C1875      O1880   1.373       .  S
C1876      C1877   1.403       .  A
C1876      H1881   1.084       .  S
C1877      C1878   1.407       .  A
C1878      O1882   1.370       .  S
C1879      C1884   1.408       .  A
C1879      C1888   1.400       .  A
O1880      H1896   0.992       .  S
O1882      H1893   0.992       .  S
C1884      C1885   1.400       .  A
C1884      O1889   1.372       .  S
C1885      C1886   1.409       .  A
C1885      H1890   1.083       .  S
C1886      C1887   1.415       .  A
C1887      C1888   1.396       .  A
C1887      O1891   1.372       .  S
C1888      H1892   1.084       .  S
O1889      H1894   0.992       .  S
O1891      H1895   0.992       .  S
O1897     Zr1909   2.441   1_655  S
O1897      C1899   1.288       .  A
O1898      C1899   1.288       .  A
C1899      C2121   1.485       .  S
O1900      C1902   1.288       .  A
O1901     Zr2252   2.426   1_565  S
O1901      C1902   1.287       .  A
C1902      C2073   1.479       .  S
O1903     Zr1912   2.437   1_655  S
O1903      C1905   1.287       .  A
O1904      C1905   1.286       .  A
C1905      C2202   1.484       .  S
O1906      C1908   1.290       .  A
O1907     Zr1936   2.421   1_565  S
O1907      C1908   1.286       .  A
C1908      C2178   1.484       .  S
Zr1909     O1910   2.433       .  S
Zr1909     O1915   2.371   1_455  S
O1910      H1953   0.990       .  S
Zr1912     O1913   2.436       .  S
Zr1912     O2231   2.363   1_454  S
O1913      H1957   0.990       .  S
O1915     Zr2228   2.367   1_655  S
O1916     Zr1936   2.384   1_565  S
O1916      H2259   0.964       .  S
O1917     Zr1929   2.433       .  S
O1917      C1919   1.286       .  A
O1918      C1919   1.288       .  A
C1919      C2058   1.483       .  S
O1920      C1922   1.286       .  A
O1921     Zr1935   2.431   1_554  S
O1921      C1922   1.288       .  A
C1922      C2106   1.481       .  S
O1923     Zr1932   2.437       .  S
O1923      C1925   1.287       .  A
O1924      C1925   1.287       .  A
C1925      C2025   1.479       .  S
O1926      C1928   1.288       .  A
O1927     Zr2251   2.425       .  S
O1927      C1928   1.287       .  A
C1928      C2145   1.489       .  S
Zr1929     O1930   2.435       .  S
Zr1929     O1931   2.434       .  S
Zr1929     O2253   2.371       .  S
O1930      H1950   0.990       .  S
O1930      H1955   0.990       .  S
O1931      H1951   0.990       .  S
Zr1932     O1933   2.434       .  S
Zr1932     O1934   2.436       .  S
Zr1932     O1937   2.365       .  S
O1934      H1948   0.990       .  S
O1934      H1958   0.990       .  S
Zr1935     O2243   2.420       .  S
Zr1935     O1938   2.372   1_556  S
Zr1935     O1940   2.386   1_556  S
Zr1935     O2257   2.385       .  S
Zr1936     O2217   2.423   1_545  S
Zr1936     O1939   2.382       .  S
Zr1936     O2258   2.384       .  S
O1937     Zr2245   2.373   1_554  S
O1937      H2261   0.964       .  S
O1940      H1944   0.967       .  S
O1941     Zr2251   2.385       .  S
O1941      H1946   0.967       .  S
O1942     Zr2252   2.383       .  S
H1943      O2232   0.964       .  S
H1945      O2253   0.964       .  S
O1959     Zr1971   2.436       .  S
O1959      C1961   1.287       .  A
O1960     Zr1997   2.419       .  S
O1960      C1961   1.286       .  A
C1961      C2193   1.475       .  S
O1962     Zr1974   2.432       .  S
O1962      C1964   1.287       .  A
O1963     Zr1998   2.420       .  S
O1963      C1964   1.286       .  A
C1964      C2169   1.477       .  S
O1965     Zr1974   2.443       .  S
O1965      C1967   1.288       .  A
O1966     Zr1997   2.426       .  S
O1966      C1967   1.287       .  A
C1967      C2130   1.489       .  S
O1968     Zr1971   2.433       .  S
O1968      C1970   1.286       .  A
O1969     Zr1998   2.418       .  S
O1969      C1970   1.286       .  A
C1970      C2082   1.478       .  S
Zr1971     O1972   2.434       .  S
Zr1971     O1973   2.434       .  S
Zr1971     O1977   2.374       .  S
Zr1971     O1978   2.370       .  S
Zr1971     O2001   2.370       .  S
Zr1971     O2003   2.367       .  S
O1972      H2015   0.990       .  S
O1973      H2014   0.990       .  S
O1973      H2018   0.991       .  S
Zr1974     O1975   2.437       .  S
Zr1974     O1976   2.435       .  S
Zr1974     O1978   2.367       .  S
Zr1974     O1977   2.366       .  S
Zr1974     O2002   2.370       .  S
Zr1974     O2004   2.379       .  S
O1975      H2016   0.990       .  S
O1975      H2019   0.990       .  S
O1976      H2009   0.990       .  S
O1977     Zr1997   2.379       .  S
O1978     Zr1998   2.384       .  S
O1978      H2005   0.964       .  S
O1979     Zr1991   2.438       .  S
O1979      C1981   1.287       .  A
O1980     Zr1998   2.428       .  S
O1980      C1981   1.288       .  A
C1981      C2034   1.485       .  S
O1982     Zr1994   2.434       .  S
O1982      C1984   1.287       .  A
O1983     Zr1997   2.417       .  S
O1983      C1984   1.286       .  A
C1984      C2154   1.477       .  S
O1985     Zr1994   2.436       .  S
O1985      C1987   1.287       .  A
O1986     Zr1998   2.417       .  S
O1986      C1987   1.286       .  A
C1987      C2049   1.480       .  S
O1988     Zr1991   2.436       .  S
O1988      C1990   1.288       .  A
O1989     Zr1997   2.427       .  S
O1989      C1990   1.288       .  A
C1990      C2097   1.483       .  S
Zr1991     O1992   2.436       .  S
Zr1991     O1993   2.435       .  S
Zr1991     O1999   2.363       .  S
Zr1991     O2000   2.371       .  S
Zr1991     O2003   2.372       .  S
Zr1991     O2001   2.372       .  S
O1992      H2012   0.990       .  S
O1992      H2017   0.990       .  S
O1993      H2013   0.990       .  S
Zr1994     O1995   2.431       .  S
Zr1994     O1996   2.434       .  S
Zr1994     O2000   2.371       .  S
Zr1994     O1999   2.364       .  S
Zr1994     O2004   2.369       .  S
Zr1994     O2002   2.366       .  S
O1995      H2011   0.990       .  S
O1996      H2010   0.990       .  S
O1996      H2020   0.991       .  S
Zr1997     O2000   2.377       .  S
Zr1997     O2002   2.385       .  S
Zr1997     O2003   2.387       .  S
Zr1998     O1999   2.375       .  S
Zr1998     O2001   2.381       .  S
Zr1998     O2004   2.387       .  S
O1999      H2007   0.964       .  S
O2002      H2006   0.966       .  S
O2003      H2008   0.966       .  S
C2021      C2022   1.403       .  A
C2021      C2026   1.401       .  A
C2021      H2031   1.084       .  S
C2022      C2027   1.479       .  S
C2022      C2023   1.407       .  A
C2023      C2024   1.396       .  A
C2023      O2028   1.372       .  S
C2024      C2025   1.404       .  A
C2024      H2029   1.084       .  S
C2025      C2026   1.412       .  A
C2026      O2030   1.372       .  S
C2027      C2032   1.406       .  A
C2027      C2036   1.400       .  A
O2028      H2044   0.992       .  S
O2030      H2041   0.992       .  S
C2032      C2033   1.401       .  A
C2032      O2037   1.372       .  S
C2033      C2034   1.407       .  A
C2033      H2038   1.083       .  S
C2034      C2035   1.415       .  A
C2035      C2036   1.397       .  A
C2035      O2039   1.372       .  S
C2036      H2040   1.084       .  S
O2037      H2042   0.992       .  S
O2039      H2043   0.992       .  S
C2045      C2046   1.402       .  A
C2045      C2050   1.398       .  A
C2045      H2055   1.083       .  S
C2046      C2051   1.482       .  S
C2046      C2047   1.409       .  A
C2047      C2048   1.398       .  A
C2047      O2052   1.372       .  S
C2048      C2049   1.406       .  A
C2048      H2053   1.084       .  S
C2049      C2050   1.411       .  A
C2050      O2054   1.372       .  S
C2051      C2056   1.409       .  A
C2051      C2060   1.401       .  A
O2052      H2068   0.992       .  S
O2054      H2065   0.992       .  S
C2056      C2057   1.401       .  A
C2056      O2061   1.372       .  S
C2057      C2058   1.405       .  A
C2057      H2062   1.083       .  S
C2058      C2059   1.414       .  A
C2059      C2060   1.398       .  A
C2059      O2063   1.372       .  S
C2060      H2064   1.084       .  S
O2061      H2066   0.992       .  S
O2063      H2067   0.992       .  S
C2069      C2070   1.399       .  A
C2069      C2074   1.396       .  A
C2069      H2079   1.084       .  S
C2070      C2075   1.472       .  S
C2070      C2071   1.406       .  A
C2071      C2072   1.400       .  A
C2071      O2076   1.372       .  S
C2072      C2073   1.406       .  A
C2072      H2077   1.083       .  S
C2073      C2074   1.413       .  A
C2074      O2078   1.371       .  S
C2075      C2080   1.405       .  A
C2075      C2084   1.400       .  A
O2076      H2092   0.992       .  S
O2078      H2089   0.992       .  S
C2080      C2081   1.397       .  A
C2080      O2085   1.372       .  S
C2081      C2082   1.406       .  A
C2081      H2086   1.084       .  S
C2082      C2083   1.413       .  A
C2083      C2084   1.397       .  A
C2083      O2087   1.372       .  S
C2084      H2088   1.084       .  S
O2085      H2090   0.992       .  S
O2087      H2091   0.992       .  S
C2093      C2094   1.403       .  A
C2093      C2098   1.400       .  A
C2093      H2103   1.083       .  S
C2094      C2099   1.483       .  S
C2094      C2095   1.409       .  A
C2095      C2096   1.398       .  A
C2095      O2100   1.372       .  S
C2096      C2097   1.405       .  A
C2096      H2101   1.082       .  S
C2097      C2098   1.413       .  A
C2098      O2102   1.372       .  S
C2099      C2104   1.409       .  A
C2099      C2108   1.401       .  A
O2100      H2116   0.992       .  S
O2102      H2113   0.992       .  S
C2104      C2105   1.402       .  A
C2104      O2109   1.372       .  S
C2105      C2106   1.405       .  A
C2105      H2110   1.084       .  S
C2106      C2107   1.413       .  A
C2107      C2108   1.396       .  A
C2107      O2111   1.372       .  S
C2108      H2112   1.084       .  S
O2109      H2114   0.992       .  S
O2111      H2115   0.992       .  S
C2117      C2118   1.404       .  A
C2117      C2122   1.400       .  A
C2117      H2127   1.083       .  S
C2118      C2123   1.490       .  S
C2118      C2119   1.411       .  A
C2119      C2120   1.401       .  A
C2119      O2124   1.372       .  S
C2120      C2121   1.404       .  A
C2120      H2125   1.083       .  S
C2121      C2122   1.412       .  A
C2122      O2126   1.372       .  S
C2123      C2128   1.410       .  A
C2123      C2132   1.405       .  A
O2124      H2140   0.992       .  S
O2126      H2137   0.992       .  S
C2128      C2129   1.399       .  A
C2128      O2133   1.372       .  S
C2129      C2130   1.406       .  A
C2129      H2134   1.082       .  S
C2130      C2131   1.414       .  A
C2131      C2132   1.400       .  A
C2131      O2135   1.372       .  S
C2132      H2136   1.083       .  S
O2133      H2138   0.992       .  S
O2135      H2139   0.992       .  S
C2141      C2142   1.403       .  A
C2141      C2146   1.401       .  A
C2141      H2151   1.084       .  S
C2142      C2147   1.486       .  S
C2142      C2143   1.409       .  A
C2143      C2144   1.401       .  A
C2143      O2148   1.373       .  S
C2144      C2145   1.407       .  A
C2144      H2149   1.083       .  S
C2145      C2146   1.414       .  A
C2146      O2150   1.371       .  S
C2147      C2152   1.409       .  A
C2147      C2156   1.406       .  A
O2148      H2164   0.992       .  S
O2150      H2161   0.992       .  S
C2152      C2153   1.396       .  A
C2152      O2157   1.371       .  S
C2153      C2154   1.403       .  A
C2153      H2158   1.082       .  S
C2154      C2155   1.411       .  A
C2155      C2156   1.400       .  A
C2155      O2159   1.372       .  S
C2156      H2160   1.084       .  S
O2157      H2162   0.992       .  S
O2159      H2163   0.992       .  S
C2165      C2166   1.403       .  A
C2165      C2170   1.399       .  A
C2165      H2175   1.083       .  S
C2166      C2171   1.478       .  S
C2166      C2167   1.406       .  A
C2167      C2168   1.397       .  A
C2167      O2172   1.372       .  S
C2168      C2169   1.407       .  A
C2168      H2173   1.084       .  S
C2169      C2170   1.409       .  A
C2170      O2174   1.372       .  S
C2171      C2176   1.405       .  A
C2171      C2180   1.403       .  A
O2172      H2188   0.992       .  S
O2174      H2185   0.992       .  S
C2176      C2177   1.397       .  A
C2176      O2181   1.372       .  S
C2177      C2178   1.405       .  A
C2177      H2182   1.083       .  S
C2178      C2179   1.415       .  A
C2179      C2180   1.402       .  A
C2179      O2183   1.372       .  S
C2180      H2184   1.084       .  S
O2181      H2186   0.992       .  S
O2183      H2187   0.992       .  S
C2189      C2190   1.402       .  A
C2189      C2194   1.396       .  A
C2189      H2199   1.084       .  S
C2190      C2195   1.478       .  S
C2190      C2191   1.408       .  A
C2191      C2192   1.401       .  A
C2191      O2196   1.372       .  S
C2192      C2193   1.404       .  A
C2192      H2197   1.084       .  S
C2193      C2194   1.408       .  A
C2194      O2198   1.369       .  S
C2195      C2200   1.407       .  A
C2195      C2204   1.401       .  A
O2196      H2212   0.992       .  S
O2198      H2209   0.992       .  S
C2200      C2201   1.399       .  A
C2200      O2205   1.372       .  S
C2201      C2202   1.408       .  A
C2201      H2206   1.083       .  S
C2202      C2203   1.414       .  A
C2203      C2204   1.397       .  A
C2203      O2207   1.372       .  S
C2204      H2208   1.084       .  S
O2205      H2210   0.992       .  S
O2207      H2211   0.992       .  S
O2213     Zr2225   2.435   1_655  S
O2213      C2215   1.287       .  A
O2214      C2215   1.287       .  A
C2215      C2437   1.481       .  S
O2216      C2218   1.289       .  A
O2217      C2218   1.287       .  A
C2218      C2389   1.483       .  S
O2219     Zr2228   2.431   1_655  S
O2219      C2221   1.286       .  A
O2220      C2221   1.288       .  A
C2221      C2518   1.485       .  S
O2222      C2224   1.288       .  A
O2223     Zr2252   2.417   1_566  S
O2223      C2224   1.285       .  A
C2224      C2494   1.479       .  S
Zr2225     O2226   2.434       .  S
Zr2225     O2231   2.369   1_455  S
O2226      H2269   0.990       .  S
Zr2228     O2229   2.436       .  S
O2229      H2273   0.990       .  S
O2232     Zr2252   2.384   1_565  S
O2233     Zr2245   2.434       .  S
O2233      C2235   1.287       .  A
O2234      C2235   1.289       .  A
C2235      C2374   1.484       .  S
O2236      C2238   1.287       .  A
O2237     Zr2251   2.429       .  S
O2237      C2238   1.288       .  A
C2238      C2422   1.482       .  S
O2239     Zr2248   2.442       .  S
O2239      C2241   1.288       .  A
O2240      C2241   1.285       .  A
C2241      C2341   1.476       .  S
O2242      C2244   1.289       .  A
O2243      C2244   1.286       .  A
C2244      C2461   1.487       .  S
Zr2245     O2246   2.436       .  S
Zr2245     O2247   2.436       .  S
O2246      H2266   0.990       .  S
O2246      H2271   0.990       .  S
O2247      H2267   0.990       .  S
Zr2248     O2249   2.432       .  S
Zr2248     O2250   2.435       .  S
Zr2248     O2253   2.367       .  S
O2250      H2264   0.990       .  S
O2250      H2274   0.991       .  S
Zr2251     O2254   2.377       .  S
Zr2251     O2256   2.387       .  S
Zr2252     O2255   2.384   1_554  S
O2256      H2260   0.966       .  S
O2257      H2262   0.967       .  S
O2275     Zr2287   2.431       .  S
O2275      C2277   1.286       .  A
O2276     Zr2313   2.426       .  S
O2276      C2277   1.288       .  A
C2277      C2509   1.475       .  S
O2278     Zr2290   2.435       .  S
O2278      C2280   1.287       .  A
O2279     Zr2314   2.424       .  S
O2279      C2280   1.287       .  A
C2280      C2485   1.481       .  S
O2281     Zr2290   2.443       .  S
O2281      C2283   1.288       .  A
O2282     Zr2313   2.425       .  S
O2282      C2283   1.288       .  A
C2283      C2446   1.489       .  S
O2284     Zr2287   2.433       .  S
O2284      C2286   1.287       .  A
O2285     Zr2314   2.419       .  S
O2285      C2286   1.286       .  A
C2286      C2398   1.479       .  S
Zr2287     O2288   2.433       .  S
Zr2287     O2289   2.434       .  S
Zr2287     O2293   2.372       .  S
Zr2287     O2294   2.369       .  S
Zr2287     O2317   2.369       .  S
Zr2287     O2319   2.367       .  S
O2288      H2331   0.990       .  S
O2289      H2330   0.989       .  S
O2289      H2334   0.991       .  S
Zr2290     O2291   2.436       .  S
Zr2290     O2292   2.434       .  S
Zr2290     O2294   2.370       .  S
Zr2290     O2293   2.367       .  S
Zr2290     O2318   2.369       .  S
Zr2290     O2320   2.374       .  S
O2291      H2332   0.990       .  S
O2291      H2335   0.990       .  S
O2292      H2325   0.990       .  S
O2293     Zr2313   2.376       .  S
O2294     Zr2314   2.381       .  S
O2294      H2321   0.964       .  S
O2295     Zr2307   2.444       .  S
O2295      C2297   1.289       .  A
O2296     Zr2314   2.427       .  S
O2296      C2297   1.288       .  A
C2297      C2350   1.489       .  S
O2298     Zr2310   2.432       .  S
O2298      C2300   1.286       .  A
O2299     Zr2313   2.421       .  S
O2299      C2300   1.287       .  A
C2300      C2470   1.477       .  S
O2301     Zr2310   2.441       .  S
O2301      C2303   1.288       .  A
O2302     Zr2314   2.413       .  S
O2302      C2303   1.285       .  A
C2303      C2365   1.478       .  S
O2304     Zr2307   2.433       .  S
O2304      C2306   1.287       .  A
O2305     Zr2313   2.427       .  S
O2305      C2306   1.288       .  A
C2306      C2413   1.480       .  S
Zr2307     O2308   2.435       .  S
Zr2307     O2309   2.434       .  S
Zr2307     O2315   2.366       .  S
Zr2307     O2316   2.370       .  S
Zr2307     O2319   2.371       .  S
Zr2307     O2317   2.368       .  S
O2308      H2328   0.990       .  S
O2308      H2333   0.990       .  S
O2309      H2329   0.990       .  S
Zr2310     O2311   2.434       .  S
Zr2310     O2312   2.434       .  S
Zr2310     O2316   2.370       .  S
Zr2310     O2315   2.367       .  S
Zr2310     O2320   2.369       .  S
Zr2310     O2318   2.368       .  S
O2311      H2327   0.990       .  S
O2312      H2326   0.990       .  S
O2312      H2336   0.991       .  S
Zr2313     O2316   2.374       .  S
Zr2313     O2318   2.384       .  S
Zr2313     O2319   2.382       .  S
Zr2314     O2315   2.378       .  S
Zr2314     O2317   2.379       .  S
Zr2314     O2320   2.382       .  S
O2315      H2323   0.964       .  S
O2318      H2322   0.965       .  S
O2319      H2324   0.966       .  S
C2337      C2338   1.404       .  A
C2337      C2342   1.401       .  A
C2337      H2347   1.083       .  S
C2338      C2343   1.482       .  S
C2338      C2339   1.409       .  A
C2339      C2340   1.397       .  A
C2339      O2344   1.372       .  S
C2340      C2341   1.405       .  A
C2340      H2345   1.084       .  S
C2341      C2342   1.410       .  A
C2342      O2346   1.372       .  S
C2343      C2348   1.407       .  A
C2343      C2352   1.400       .  A
O2344      H2360   0.992       .  S
O2346      H2357   0.992       .  S
C2348      C2349   1.403       .  A
C2348      O2353   1.372       .  S
C2349      C2350   1.408       .  A
C2349      H2354   1.083       .  S
C2350      C2351   1.415       .  A
C2351      C2352   1.397       .  A
C2351      O2355   1.371       .  S
C2352      H2356   1.084       .  S
O2353      H2358   0.992       .  S
O2355      H2359   0.992       .  S
C2361      C2362   1.403       .  A
C2361      C2366   1.398       .  A
C2361      H2371   1.083       .  S
C2362      C2367   1.480       .  S
C2362      C2363   1.407       .  A
C2363      C2364   1.397       .  A
C2363      O2368   1.372       .  S
C2364      C2365   1.406       .  A
C2364      H2369   1.084       .  S
C2365      C2366   1.411       .  A
C2366      O2370   1.372       .  S
C2367      C2372   1.408       .  A
C2367      C2376   1.401       .  A
O2368      H2384   0.992       .  S
O2370      H2381   0.992       .  S
C2372      C2373   1.401       .  A
C2372      O2377   1.372       .  S
C2373      C2374   1.405       .  A
C2373      H2378   1.083       .  S
C2374      C2375   1.415       .  A
C2375      C2376   1.398       .  A
C2375      O2379   1.372       .  S
C2376      H2380   1.084       .  S
O2377      H2382   0.992       .  S
O2379      H2383   0.992       .  S
C2385      C2386   1.399       .  A
C2385      C2390   1.395       .  A
C2385      H2395   1.084       .  S
C2386      C2391   1.478       .  S
C2386      C2387   1.409       .  A
C2387      C2388   1.401       .  A
C2387      O2392   1.372       .  S
C2388      C2389   1.407       .  A
C2388      H2393   1.083       .  S
C2389      C2390   1.414       .  A
C2390      O2394   1.371       .  S
C2391      C2396   1.408       .  A
C2391      C2400   1.401       .  A
O2392      H2408   0.992       .  S
O2394      H2405   0.992       .  S
C2396      C2397   1.397       .  A
C2396      O2401   1.372       .  S
C2397      C2398   1.406       .  A
C2397      H2402   1.084       .  S
C2398      C2399   1.413       .  A
C2399      C2400   1.398       .  A
C2399      O2403   1.372       .  S
C2400      H2404   1.084       .  S
O2401      H2406   0.992       .  S
O2403      H2407   0.992       .  S
C2409      C2410   1.402       .  A
C2409      C2414   1.400       .  A
C2409      H2419   1.083       .  S
C2410      C2415   1.481       .  S
C2410      C2411   1.408       .  A
C2411      C2412   1.398       .  A
C2411      O2416   1.372       .  S
C2412      C2413   1.404       .  A
C2412      H2417   1.082       .  S
C2413      C2414   1.412       .  A
C2414      O2418   1.372       .  S
C2415      C2420   1.408       .  A
C2415      C2424   1.401       .  A
O2416      H2432   0.992       .  S
O2418      H2429   0.992       .  S
C2420      C2421   1.402       .  A
C2420      O2425   1.372       .  S
C2421      C2422   1.406       .  A
C2421      H2426   1.084       .  S
C2422      C2423   1.413       .  A
C2423      C2424   1.396       .  A
C2423      O2427   1.372       .  S
C2424      H2428   1.084       .  S
O2425      H2430   0.992       .  S
O2427      H2431   0.992       .  S
C2433      C2434   1.404       .  A
C2433      C2438   1.400       .  A
C2433      H2443   1.084       .  S
C2434      C2439   1.485       .  S
C2434      C2435   1.409       .  A
C2435      C2436   1.397       .  A
C2435      O2440   1.371       .  S
C2436      C2437   1.404       .  A
C2436      H2441   1.083       .  S
C2437      C2438   1.412       .  A
C2438      O2442   1.372       .  S
C2439      C2444   1.407       .  A
C2439      C2448   1.403       .  A
O2440      H2456   0.992       .  S
O2442      H2453   0.992       .  S
C2444      C2445   1.400       .  A
C2444      O2449   1.372       .  S
C2445      C2446   1.407       .  A
C2445      H2450   1.081       .  S
C2446      C2447   1.414       .  A
C2447      C2448   1.399       .  A
C2447      O2451   1.371       .  S
C2448      H2452   1.084       .  S
O2449      H2454   0.992       .  S
O2451      H2455   0.992       .  S
C2457      C2458   1.403       .  A
C2457      C2462   1.400       .  A
C2457      H2467   1.084       .  S
C2458      C2463   1.483       .  S
C2458      C2459   1.408       .  A
C2459      C2460   1.400       .  A
C2459      O2464   1.373       .  S
C2460      C2461   1.407       .  A
C2460      H2465   1.083       .  S
C2461      C2462   1.414       .  A
C2462      O2466   1.371       .  S
C2463      C2468   1.408       .  A
C2463      C2472   1.405       .  A
O2464      H2480   0.992       .  S
O2466      H2477   0.992       .  S
C2468      C2469   1.396       .  A
C2468      O2473   1.371       .  S
C2469      C2470   1.403       .  A
C2469      H2474   1.082       .  S
C2470      C2471   1.411       .  A
C2471      C2472   1.400       .  A
C2471      O2475   1.372       .  S
C2472      H2476   1.084       .  S
O2473      H2478   0.992       .  S
O2475      H2479   0.992       .  S
C2481      C2482   1.403       .  A
C2481      C2486   1.400       .  A
C2481      H2491   1.083       .  S
C2482      C2487   1.480       .  S
C2482      C2483   1.407       .  A
C2483      C2484   1.398       .  A
C2483      O2488   1.372       .  S
C2484      C2485   1.407       .  A
C2484      H2489   1.084       .  S
C2485      C2486   1.410       .  A
C2486      O2490   1.372       .  S
C2487      C2492   1.407       .  A
C2487      C2496   1.404       .  A
O2488      H2504   0.992       .  S
O2490      H2501   0.992       .  S
C2492      C2493   1.397       .  A
C2492      O2497   1.372       .  S
C2493      C2494   1.404       .  A
C2493      H2498   1.084       .  S
C2494      C2495   1.413       .  A
C2495      C2496   1.400       .  A
C2495      O2499   1.372       .  S
C2496      H2500   1.084       .  S
O2497      H2502   0.992       .  S
O2499      H2503   0.992       .  S
C2505      C2506   1.403       .  A
C2505      C2510   1.396       .  A
C2505      H2515   1.084       .  S
C2506      C2511   1.480       .  S
C2506      C2507   1.409       .  A
C2507      C2508   1.401       .  A
C2507      O2512   1.373       .  S
C2508      C2509   1.404       .  A
C2508      H2513   1.084       .  S
C2509      C2510   1.407       .  A
C2510      O2514   1.369       .  S
C2511      C2516   1.407       .  A
C2511      C2520   1.403       .  A
O2512      H2528   0.992       .  S
O2514      H2525   0.992       .  S
C2516      C2517   1.396       .  A
C2516      O2521   1.371       .  S
C2517      C2518   1.407       .  A
C2517      H2522   1.083       .  S
C2518      C2519   1.416       .  A
C2519      C2520   1.397       .  A
C2519      O2523   1.372       .  S
C2520      H2524   1.084       .  S
O2521      H2526   0.992       .  S
O2523      H2527   0.992       .  S
