geometry optimzed in LAMMPS
_audit_creation_date              2020-11-30 
_audit_creation_method            'lammps2cif' 
_symmetry_space_group_name_H-M    'P1' 
_symmetry_Int_Tables_number       1 
_symmetry_cell_setting            triclinic 
loop_ 
_symmetry_equiv_pos_as_xyz 
  x,y,z 
_cell_length_a                    43.319208452209025 
_cell_length_b                    43.26073927592704 
_cell_length_c                    43.34062569411425 
_cell_angle_alpha                 90.2768102686839 
_cell_angle_beta                  90.03647260799015 
_cell_angle_gamma                 89.89775262231431 
loop_ 
_atom_site_label 
_atom_site_type_symbol 
_atom_site_fract_x 
_atom_site_fract_y 
_atom_site_fract_z 
_atom_site_charge 
C1          C  0.06648090  0.42373750  0.18156427     0.41800
N2          N  0.03572659  0.44169535  0.21717449     0.00690
C3          C  0.95280470  0.58192721  0.21256501    -0.07190
H4          H  0.05268364  0.60039557  0.23095913     0.06180
C5          C  0.05630822  0.53112619  0.32941175    -0.07540
Co6        Co  0.00153138  0.49995069  0.19495324     0.74180
N7          N  0.03414759  0.55539597  0.22146484    -0.26720
Co8        Co  0.99976505  0.55307501  0.25499019     0.74070
C9          C  0.07504935  0.55601187  0.31641551     0.42380
N10         N  0.03121389  0.46218065  0.31135641     0.00300
N11         N  0.03292629  0.55013154  0.28990040     0.00410
N12         N  0.95220883  0.54988803  0.17142212    -0.47570
H13         H  0.05714482  0.46585910  0.15058373     0.06160
N14         N  0.03517614  0.53677899  0.19716613     0.00690
N15         N  0.96343429  0.55097384  0.28745962     0.00430
C16         C  0.92103347  0.55939242  0.31256194     0.42040
N17         N  0.03281670  0.43999094  0.29038951    -0.26180
C18         C  0.94769473  0.45456568  0.17278380    -0.07100
N19         N  0.05351938  0.41779279  0.20936590    -0.47280
N20         N  0.93969585  0.57038224  0.29004203    -0.47510
C21         C  0.93639180  0.42378800  0.18193909     0.41810
N22         N  0.96778808  0.53716825  0.19507096     0.00680
N23         N  0.96519816  0.43810605  0.28493356    -0.26200
N24         N  0.03538068  0.46346374  0.19550681    -0.26690
N25         N  0.96316998  0.45860791  0.30755250     0.00320
H26         H  0.93951187  0.39666100  0.27423299     0.06210
H27         H  0.92957951  0.51740701  0.34380655     0.06240
N28         N  0.96844484  0.55620703  0.21906288    -0.26740
N29         N  0.03118352  0.52867252  0.31120140    -0.26350
N30         N  0.96941514  0.44034507  0.21531633     0.00680
C31         C  0.06456025  0.57611557  0.18553392     0.42080
C32         C  0.05418094  0.41972035  0.30059901    -0.07600
N33         N  0.96212215  0.52843054  0.30776916    -0.26350
H34         H  0.06159442  0.51665546  0.34896729     0.06230
N35         N  0.05247397  0.54894735  0.17458069    -0.47570
H36         H  0.05912309  0.39760444  0.29000865     0.06220
C37         C  0.92675987  0.42545344  0.31717437     0.41920
C38         C  0.05458760  0.45429947  0.17249996    -0.07100
Co39       Co  0.00113991  0.43978863  0.25199483     0.73820
N40         N  0.05177124  0.45963294  0.33401611    -0.47290
C41         C  0.94156456  0.57814138  0.18131957     0.42180
N42         N  0.95115013  0.41667095  0.20831152    -0.47280
Co43       Co  0.99654778  0.49476592  0.30992019     0.73890
C44         C  0.93649146  0.53203317  0.32486532    -0.07610
C45         C  0.05209002  0.57996838  0.21647036    -0.07170
N46         N  0.96841694  0.46292910  0.19455471    -0.26700
N47         N  0.05810082  0.56738478  0.29273404    -0.47460
H48         H  0.95297033  0.60264096  0.22664635     0.06190
C49         C  0.94294988  0.41672563  0.28876571    -0.07580
Cl50       Cl  0.99966228  0.49660233  0.25240506    -0.50590
C51         C  0.06814521  0.43385793  0.32857433     0.41950
H52         H  0.94316663  0.46705051  0.15169517     0.06160
N53         N  0.94062492  0.45180558  0.32745053    -0.47300
C54         C  0.55783817  0.07680915  0.31964714     0.41800
N55         N  0.53445334  0.05339864  0.28154784     0.00690
C56         C  0.44859897  0.91338430  0.28228147    -0.07190
H57         H  0.55239127  0.89257399  0.27109587     0.06180
C58         C  0.56411003  0.95561652  0.17192621    -0.07540
Co59       Co  0.50009015  0.99450513  0.30121478     0.74180
N60         N  0.53160174  0.93741314  0.27730072    -0.26720
Co61       Co  0.49896112  0.93940973  0.24093117     0.74070
C62         C  0.57685528  0.92672303  0.18420804     0.41900
N63         N  0.54149574  0.03064572  0.18964872     0.00300
N64         N  0.53490993  0.93874326  0.20848203     0.00410
N65         N  0.44919681  0.94596487  0.32294894    -0.47570
H66         H  0.54788018  0.03548487  0.35179206     0.06160
N67         N  0.53320923  0.95822687  0.29989227     0.00690
N68         N  0.46518317  0.94386329  0.20398250     0.00430
C69         C  0.42420137  0.94153990  0.17386923     0.42040
N70         N  0.53901277  0.05266973  0.21073221    -0.26180
C71         C  0.45021718  0.04085593  0.32447959    -0.07100
N72         N  0.54812341  0.07949376  0.29022371    -0.47280
N73         N  0.43894359  0.92837320  0.19863618    -0.47510
C74         C  0.44215797  0.07275517  0.31672980     0.41810
N75         N  0.46573832  0.95757321  0.29947175     0.00680
N76         N  0.47109515  0.05307034  0.20761958    -0.26200
N77         N  0.53333394  0.03244499  0.30386877    -0.26690
N78         N  0.47319753  0.03258497  0.18502546     0.00320
H79         H  0.44080360  0.09200018  0.21445245     0.06210
H80         H  0.44218126  0.98104730  0.14404142     0.06240
N81         N  0.46561390  0.93837224  0.27550792    -0.26740
N82         N  0.53835916  0.96126026  0.18842911    -0.26350
N83         N  0.46944759  0.05295631  0.27974512     0.00680
C84         C  0.56426356  0.92163058  0.31392641     0.42080
C85         C  0.56096095  0.07386269  0.20514171    -0.07600
N86         N  0.46927690  0.96572572  0.18323942    -0.26350
H87         H  0.57261773  0.96965318  0.15319160     0.06230
N88         N  0.55196308  0.94922772  0.32263501    -0.47570
H89         H  0.56262993  0.09551277  0.21747225     0.06220
C90         C  0.43488627  0.06112212  0.17131449     0.41920
C91         C  0.54811245  0.04509452  0.32880733    -0.07100
Co92       Co  0.50332046  0.05290578  0.24459328     0.73820
N93         N  0.56517581  0.03511907  0.17042694    -0.47290
C94         C  0.43747773  0.91802616  0.31362365     0.42180
N95         N  0.45520328  0.07843937  0.28903999    -0.47280
Co96       Co  0.50602112  0.99735816  0.18617977     0.73890
C97         C  0.44521460  0.96556036  0.16328481    -0.07610
C98         C  0.55045060  0.91385562  0.28416998    -0.07170
N99         N  0.46773497  0.03072696  0.30073443    -0.26700
N100        N  0.55681642  0.91727314  0.20612962    -0.47460
H101        H  0.44765207  0.89249815  0.26848641     0.06190
C102        C  0.44774942  0.07245306  0.20069614    -0.07580
Cl103      Cl  0.50208168  0.99611362  0.24354674    -0.50590
C104        C  0.57913649  0.06200150  0.17876071     0.41950
H105        H  0.44765937  0.02925731  0.34637612     0.06160
N106        N  0.45211781  0.03653381  0.16307570    -0.47300
C107        C  0.18465716  0.06092347  0.41813213     0.41800
N108        N  0.21889729  0.03075508  0.43893668     0.00690
C109        C  0.21344635  0.95017289  0.57774452    -0.07190
H110        H  0.22599124  0.04436627  0.60013349     0.06180
C111        C  0.33238353  0.05523420  0.53251010    -0.07540
Co112      Co  0.19651130  0.99752613  0.49605225     0.74180
N113        N  0.22094802  0.03027880  0.55300760    -0.26720
Co114      Co  0.25659918  0.99799417  0.55147794     0.74070
C115        C  0.32044907  0.07214160  0.55936284     0.41900
N116        N  0.31149073  0.02999074  0.46026692     0.00300
N117        N  0.29147156  0.03235633  0.54989374     0.00410
N118        N  0.17490699  0.94701671  0.54273679    -0.47570
H119        H  0.15098058  0.05265464  0.45864317     0.06160
N120        N  0.19744140  0.03073453  0.53330895     0.00690
N121        N  0.29126607  0.96319413  0.55095662     0.00430
C122        C  0.32085208  0.92469263  0.56313942     0.42040
N123        N  0.28860787  0.03101637  0.44020312    -0.26180
C124        C  0.17268707  0.94585854  0.44780025    -0.07100
N125        N  0.21255827  0.04756987  0.41426659    -0.47280
N126        N  0.29530555  0.94081534  0.57155505    -0.47510
C127        C  0.18312591  0.93521132  0.41692473     0.41810
N128        N  0.19828080  0.96405992  0.53213915     0.00680
N129        N  0.28753905  0.96106199  0.44000950    -0.26200
N130        N  0.19633458  0.03118477  0.45962958    -0.26690
N131        N  0.31049696  0.96066971  0.46007227     0.00320
H132        H  0.27247589  0.92829965  0.40604191     0.06210
H133        H  0.35201496  0.93288584  0.52094840     0.06240
N134        N  0.22116197  0.96574096  0.55250306    -0.26740
N135        N  0.31304943  0.03108642  0.52838744    -0.26350
N136        N  0.21801249  0.96436541  0.43810378     0.00680
C137        C  0.18121478  0.05503998  0.57436819     0.42080
C138        C  0.29207047  0.05669010  0.42306359    -0.07600
N139        N  0.31251998  0.96257148  0.52916747    -0.26350
H140        H  0.35216089  0.06053339  0.51828999     0.06230
N141        N  0.17307229  0.04551002  0.54543396    -0.47570
H142        H  0.27704732  0.06370339  0.40442924     0.06220
C143        C  0.31660031  0.91813748  0.43353871     0.41920
C144        C  0.17368122  0.05001425  0.44859456    -0.07100
Co145      Co  0.25369272  0.99683940  0.43922748     0.73820
N146        N  0.33095291  0.05358123  0.45748147    -0.47290
C147        C  0.18319341  0.93743961  0.57143838     0.42180
N148        N  0.21111090  0.94817113  0.41300854    -0.47280
Co149      Co  0.31249046  0.99592051  0.49432193     0.73890
C150        C  0.33210698  0.93896937  0.53475667    -0.07610
C151        C  0.21289656  0.04510079  0.57895933    -0.07170
N152        N  0.19570488  0.96415463  0.45900761    -0.26700
N153        N  0.29500851  0.05651086  0.56877626    -0.47460
H154        H  0.22581522  0.95160849  0.59932904     0.06190
C155        C  0.28931093  0.93510460  0.42281693    -0.07580
Cl156      Cl  0.25434924  0.99706391  0.49533223    -0.50590
C157        C  0.31975267  0.07216911  0.43510254     0.41950
H158        H  0.15006301  0.94347995  0.45803973     0.06160
N159        N  0.32850787  0.93566568  0.45685064    -0.47300
C160        C  0.05927361  0.17629133  0.57776438     0.41800
N161        N  0.03234115  0.21285980  0.55701253     0.00690
C162        C  0.94489387  0.21140435  0.41957694    -0.07190
H163        H  0.04296040  0.22140077  0.39498998     0.06180
C164        C  0.06148201  0.32199725  0.46168701    -0.07540
Co165      Co  0.99751300  0.19156131  0.49932766     0.74180
N166        N  0.02871800  0.21514002  0.44156005    -0.26720
Co167      Co  0.99787305  0.25123096  0.44387017     0.74070
C168        C  0.07665782  0.30903703  0.43400636     0.41900
N169        N  0.03582293  0.30477757  0.53560055     0.00300
N170        N  0.03424798  0.28397825  0.44429223     0.00410
N171        N  0.94206277  0.17325806  0.45469866    -0.47570
H172        H  0.04988745  0.14393398  0.53629812     0.06160
N173        N  0.03016889  0.19183476  0.46123598     0.00690
N174        N  0.96479300  0.28702781  0.44599641     0.00430
C175        C  0.92425945  0.31553486  0.43782131     0.42040
N176        N  0.03463268  0.28307674  0.55687552    -0.26180
C177        C  0.95058273  0.16699101  0.55091146    -0.07100
N178        N  0.04812887  0.20506480  0.58210553    -0.47280
N179        N  0.94065382  0.29087152  0.42745381    -0.47510
C180        C  0.94340943  0.17675696  0.58303072     0.41810
N181        N  0.96224869  0.19479816  0.46378983     0.00680
N182        N  0.96556219  0.28401286  0.55602538    -0.26200
N183        N  0.03169648  0.19060059  0.53569445    -0.26690
N184        N  0.96658776  0.30650671  0.53549460     0.00320
H185        H  0.93209900  0.27250879  0.59109738     0.06210
H186        H  0.93678470  0.34761416  0.47847717     0.06240
N187        N  0.96380753  0.21749903  0.44334884    -0.26740
N188        N  0.03580635  0.30497142  0.46642154    -0.26350
N189        N  0.96713318  0.21357456  0.55867224     0.00680
C190        C  0.05645781  0.17757025  0.42067081     0.42080
C191        C  0.05795043  0.28777169  0.57695768    -0.07600
N192        N  0.96623163  0.30841443  0.46765784    -0.26350
H193        H  0.06874379  0.34138360  0.47574999     0.06230
N194        N  0.04686695  0.16844513  0.44935046    -0.47570
H195        H  0.06266564  0.27395936  0.59716182     0.06220
C196        C  0.92383014  0.31481185  0.56010945     0.41920
C197        C  0.04868542  0.16668797  0.54667646    -0.07100
Co198      Co  0.99987914  0.24884557  0.55701835     0.73820
N199        N  0.05931423  0.32421537  0.53989395    -0.47290
C200        C  0.92995504  0.18252766  0.42707978     0.42180
N201        N  0.95476099  0.20557313  0.58538620    -0.47280
Co202      Co  0.00133507  0.30689528  0.50132073     0.73890
C203        C  0.94188137  0.32774107  0.46413106    -0.07610
C204        C  0.04408557  0.20811398  0.41591636    -0.07170
N205        N  0.96590595  0.19110701  0.53776101    -0.26700
N206        N  0.05742310  0.28624650  0.42413802    -0.47460
H207        H  0.94426852  0.22403781  0.39821597     0.06190
C208        C  0.93959585  0.28763802  0.57288467    -0.07580
Cl209      Cl  0.99922195  0.24928980  0.50045919    -0.50590
C210        C  0.07467239  0.31477167  0.56545970     0.41950
H211        H  0.94926409  0.14393145  0.54126484     0.06160
N212        N  0.94229513  0.32539010  0.53730610    -0.47300
C213        C  0.42557710  0.17895887  0.06093689     0.41800
N214        N  0.44464556  0.21476691  0.03307422     0.00690
C215        C  0.58191241  0.21672710  0.94528068    -0.07190
H216        H  0.60739738  0.23002263  0.04796668     0.06180
C217        C  0.53366199  0.33420877  0.05438521    -0.07540
Co218      Co  0.50348127  0.19520540  0.99947930     0.74180
N219        N  0.56138213  0.22212688  0.03066895    -0.26720
Co220      Co  0.55618422  0.25819896  0.99785794     0.74070
C221        C  0.56374182  0.32753553  0.06747323     0.41900
N222        N  0.46193942  0.30610151  0.03599342     0.00300
N223        N  0.55361172  0.29377677  0.03196881     0.00410
N224        N  0.54825132  0.17701716  0.94461793    -0.47570
H225        H  0.46879756  0.14837810  0.05388196     0.06160
N226        N  0.54227475  0.19812392  0.03223361     0.00690
N227        N  0.55049699  0.29328422  0.96368685     0.00430
C228        C  0.55562579  0.32317739  0.92397592     0.42040
N229        N  0.44240772  0.28289761  0.03599829    -0.26180
C230        C  0.45193836  0.16681050  0.95294233    -0.07100
N231        N  0.41967260  0.20662662  0.04871041    -0.47280
N232        N  0.56872319  0.29944306  0.93980415    -0.47510
C233        C  0.41939020  0.17513715  0.94533429     0.41810
N234        N  0.53877172  0.19897985  0.96420743     0.00680
N235        N  0.44108292  0.28325708  0.96604477    -0.26200
N236        N  0.46720177  0.19387680  0.03355415    -0.26690
N237        N  0.45968726  0.30726480  0.96668951     0.00320
H238        H  0.40818172  0.26751997  0.93243788     0.06210
H239        H  0.51204045  0.35062890  0.93626790     0.06240
N240        N  0.55835211  0.22261963  0.96474352    -0.26740
N241        N  0.52958869  0.31264498  0.03243254    -0.26350
N242        N  0.44252710  0.21347913  0.96830901     0.00680
C243        C  0.58271419  0.18483972  0.06044785     0.42080
C244        C  0.42543483  0.28471810  0.06206123    -0.07600
N245        N  0.52677332  0.31247319  0.96496974    -0.26350
H246        H  0.51826668  0.35333538  0.05920232     0.06230
N247        N  0.55438795  0.17542090  0.04967080    -0.47570
H248        H  0.40730808  0.26885699  0.06852282     0.06220
C249        C  0.43460055  0.31261413  0.92397651     0.41920
C250        C  0.45731890  0.17045827  0.05147811    -0.07100
Co251      Co  0.44283952  0.24918373  0.00065502     0.73820
N252        N  0.45892288  0.32411398  0.06077988    -0.47290
C253        C  0.57525234  0.18666307  0.93159562     0.42180
N254        N  0.41609353  0.20423147  0.95588426    -0.47280
Co255      Co  0.49427868  0.30997205  0.00018516     0.73890
C256        C  0.52808966  0.33207563  0.94095480    -0.07610
C257        C  0.58692234  0.21579953  0.04741402    -0.07170
N258        N  0.46435249  0.19185283  0.96776866    -0.26700
N259        N  0.57494489  0.30216790  0.05252266    -0.47460
H260        H  0.60241162  0.23073764  0.94288188     0.06190
C261        C  0.42438593  0.28466051  0.93989875    -0.07580
Cl262      Cl  0.49951287  0.25243556  0.99958034    -0.50590
C263        C  0.43702472  0.31165045  0.07937114     0.41950
H264        H  0.46240141  0.14411129  0.95203718     0.06160
N265        N  0.45645852  0.32547163  0.94218313    -0.47300
C266        C  0.18049124  0.57630827  0.05858851     0.41800
N267        N  0.21896691  0.55490619  0.03392070     0.00690
C268        C  0.21611388  0.41304819  0.95074019    -0.07190
H269        H  0.22942958  0.39037047  0.04262447     0.06180
C270        C  0.33675926  0.46374277  0.05455940    -0.07540
Co271      Co  0.19925802  0.49578783  0.99935169     0.74180
N272        N  0.22487807  0.43818861  0.02988311    -0.26720
Co273      Co  0.26096313  0.44182218  0.99720859     0.74070
C274        C  0.32784967  0.43532217  0.06956460     0.41900
N275        N  0.31319423  0.53491510  0.03501916     0.00300
N276        N  0.29659814  0.44404664  0.03152378     0.00410
N277        N  0.17538522  0.44529953  0.95257234    -0.47570
H278        H  0.14999133  0.53357916  0.04937939     0.06160
N279        N  0.20141493  0.45809522  0.03147726     0.00690
N280        N  0.29600099  0.44553195  0.96226110     0.00430
C281        C  0.32659195  0.43739052  0.92292064     0.42040
N282        N  0.29014905  0.55488354  0.03650775    -0.26180
C283        C  0.17485813  0.54490521  0.94957949    -0.07100
N284        N  0.20953847  0.58058841  0.04814576    -0.47280
N285        N  0.30181318  0.42625834  0.93880619    -0.47510
C286        C  0.18379292  0.57698938  0.94177110     0.41810
N287        N  0.20027794  0.45853512  0.96558243     0.00680
N288        N  0.28978700  0.55648261  0.96611628    -0.26200
N289        N  0.19737696  0.53305588  0.03321517    -0.26690
N290        N  0.31253266  0.53621499  0.96556689     0.00320
H291        H  0.27775252  0.59296848  0.93469487     0.06210
H292        H  0.35593241  0.47986828  0.93535061     0.06240
N293        N  0.22436214  0.43936884  0.96515651    -0.26740
N294        N  0.31642963  0.46718816  0.03143963    -0.26350
N295        N  0.21966993  0.55553438  0.96902201     0.00680
C296        C  0.18477013  0.41641226  0.05416489     0.42080
C297        C  0.29375075  0.57179780  0.06267935    -0.07600
N298        N  0.31622865  0.46833358  0.96343346    -0.26350
H299        H  0.35595827  0.47887343  0.05962976     0.06230
N300        N  0.17710967  0.44576844  0.04588306    -0.47570
H301        H  0.27826829  0.58980643  0.07047341     0.06220
C302        C  0.31983734  0.56252410  0.92381178     0.41920
C303        C  0.17251578  0.54430590  0.04897027    -0.07100
Co304      Co  0.25518227  0.55539551  0.00152691     0.73820
N305        N  0.33250592  0.53722337  0.05899893    -0.47290
C306        C  0.18367925  0.41654267  0.94228475     0.42180
N307        N  0.21141221  0.58136518  0.95510773    -0.47280
Co308      Co  0.31479601  0.50179274  0.99885264     0.73890
C309        C  0.33639370  0.46503691  0.93982288    -0.07610
C310        C  0.21652221  0.41172894  0.04380120    -0.07170
N311        N  0.19828234  0.53359428  0.96718081    -0.26700
N312        N  0.30299411  0.42399443  0.05390914    -0.47460
H313        H  0.22955681  0.39195075  0.95088893     0.06190
C314        C  0.29280933  0.57436359  0.94078694    -0.07580
Cl315      Cl  0.25685923  0.49853747  0.99931510    -0.50590
C316        C  0.32187657  0.55992245  0.07794337     0.41950
H317        H  0.15259383  0.53402609  0.94658509     0.06160
N318        N  0.33087177  0.53902305  0.94105507    -0.47300
C319        C  0.56639465  0.05893570  0.82742094     0.41800
N320        N  0.52936536  0.05071163  0.79494939     0.00690
C321        C  0.43782866  0.92075842  0.79087861    -0.07190
H322        H  0.56635269  0.90512141  0.78135220     0.06180
C323        C  0.55245601  0.94872252  0.67549342    -0.07540
Co324      Co  0.49463878  0.99452967  0.81305927     0.74180
N325        N  0.53252632  0.94058092  0.79128717    -0.26720
Co326      Co  0.49899973  0.94006408  0.75487772     0.74070
C327        C  0.56241891  0.91753931  0.68613021     0.41900
N328        N  0.53437209  0.03591112  0.70027745     0.00300
N329        N  0.53348128  0.94006258  0.72080275     0.00410
N330        N  0.43624682  0.95660905  0.82855659    -0.47570
H331        H  0.55364051  0.01692027  0.85642312     0.06160
N332        N  0.53063223  0.96131880  0.81362630     0.00690
N333        N  0.46747874  0.94072995  0.71797168     0.00430
C334        C  0.43669374  0.92352321  0.68281600     0.42040
N335        N  0.53094265  0.05597153  0.72338184    -0.26180
C336        C  0.43579690  0.03341271  0.83054181    -0.07100
N337        N  0.55212172  0.07009050  0.80184248    -0.47280
N338        N  0.44987337  0.91691389  0.71017385    -0.47510
C339        C  0.42051860  0.06124243  0.81904807     0.41810
N340        N  0.46086962  0.96019853  0.81038967     0.00680
N341        N  0.46650298  0.05589540  0.72031024    -0.26200
N342        N  0.52762685  0.02828559  0.81537975    -0.26690
N343        N  0.46699839  0.03608642  0.69682984     0.00320
H344        H  0.45047552  0.10264738  0.72507869     0.06210
H345        H  0.44533940  0.96598413  0.65209069     0.06240
N346        N  0.46242042  0.93957199  0.78802103    -0.26740
N347        N  0.53434742  0.96090856  0.69835026    -0.26350
N348        N  0.46060096  0.05090541  0.79081248     0.00680
C349        C  0.57390306  0.93738574  0.82345440     0.42080
C350        C  0.54395800  0.08267194  0.71531141    -0.07600
N351        N  0.46765378  0.96273693  0.69665226    -0.26350
H352        H  0.55491145  0.95841836  0.65267799     0.06230
N353        N  0.55461980  0.96022386  0.83305520    -0.47570
H354        H  0.53919196  0.10446339  0.72640032     0.06220
C355        C  0.44036830  0.07599294  0.68040946     0.41920
C356        C  0.54995620  0.03154138  0.83660023    -0.07100
Co357      Co  0.49691537  0.05331270  0.75782072     0.73820
N358        N  0.55062871  0.04829129  0.67693059    -0.47290
C359        C  0.41992875  0.93218326  0.81760785     0.42180
N360        N  0.43757072  0.07100988  0.79470304    -0.47280
Co361      Co  0.50102937  0.99884201  0.69761899     0.73890
C362        C  0.44829586  0.95406494  0.67377259    -0.07610
C363        C  0.55856141  0.92382793  0.79599664    -0.07170
N364        N  0.46011007  0.02871144  0.81167450    -0.26700
N365        N  0.54923279  0.91455278  0.71413167    -0.47460
H366        H  0.43360165  0.90146163  0.77603703     0.06190
C367        C  0.45089149  0.08134168  0.71195419    -0.07580
Cl368      Cl  0.49801086  0.99677333  0.75521237    -0.50590
C369        C  0.55806580  0.07786702  0.68536822     0.41950
H370        H  0.42991389  0.01944928  0.85030771     0.06160
N371        N  0.45150700  0.04737540  0.67242820    -0.47300
C372        C  0.67553028  0.55541041  0.07873051     0.41800
N373        N  0.70320095  0.55153567  0.03662083     0.00690
C374        C  0.71002555  0.41910368  0.94623404    -0.07190
H375        H  0.72836061  0.40804471  0.07225320     0.06180
C376        C  0.83104403  0.46016482  0.04939712    -0.07540
Co377      Co  0.68639303  0.49392557  0.00186065     0.74180
N378        N  0.71482931  0.44275228  0.03904723    -0.26720
Co379      Co  0.74866212  0.44290339  0.00352369     0.74070
C380        C  0.82475645  0.42853463  0.05967945     0.41900
N381        N  0.79857941  0.54154279  0.03338282     0.00300
N382        N  0.78513193  0.44609698  0.03513377     0.00410
N383        N  0.66974941  0.45204710  0.94635287    -0.47570
H384        H  0.64743529  0.51252123  0.06614904     0.06160
N385        N  0.69077387  0.46139326  0.03779648     0.00690
N386        N  0.78318110  0.44284242  0.97001863     0.00430
C387        C  0.82044775  0.41986821  0.94530803     0.42040
N388        N  0.77408575  0.56009755  0.03322836    -0.26180
C389        C  0.66447519  0.52952769  0.94144204    -0.07100
N390        N  0.69869221  0.56876044  0.06195170    -0.47280
N391        N  0.79204255  0.41640369  0.95721132    -0.47510
C392        C  0.67354038  0.55771363  0.92483117     0.41810
N393        N  0.68967622  0.45860000  0.96887856     0.00680
N394        N  0.77323099  0.55917791  0.96745312    -0.26200
N395        N  0.68373461  0.52814392  0.03561580    -0.26690
N396        N  0.79763617  0.54048460  0.96616552     0.00320
H397        H  0.76501759  0.60520202  0.95080514     0.06210
H398        H  0.85124637  0.46326872  0.95043548     0.06240
N399        N  0.71335528  0.43942627  0.96960056    -0.26740
N400        N  0.80548991  0.46896780  0.03379169    -0.26350
N401        N  0.70254306  0.55131662  0.96588443     0.00680
C402        C  0.68423823  0.43674500  0.08118373     0.42080
C403        C  0.78009779  0.58487656  0.05110406    -0.07600
N404        N  0.80436663  0.46499178  0.96825402    -0.26350
H405        H  0.85287101  0.47225690  0.04925046     0.06230
N406        N  0.67188529  0.45792552  0.06176135    -0.47570
H407        H  0.76552284  0.60511984  0.05303850     0.06220
C408        C  0.81054045  0.58095484  0.93895359     0.41920
C409        C  0.66529407  0.52900653  0.06067079    -0.07100
Co410      Co  0.73783256  0.55574409  0.00085395     0.73820
N411        N  0.82141840  0.55308517  0.05083977    -0.47290
C412        C  0.68123726  0.42763081  0.93034352     0.42180
N413        N  0.69738256  0.56972104  0.94165898    -0.47280
Co414      Co  0.80167836  0.50424516  0.00009317     0.73890
C415        C  0.82876895  0.45262526  0.95238252    -0.07610
C416        C  0.71239670  0.42590734  0.06514716    -0.07170
N417        N  0.68340420  0.52753883  0.96631010    -0.26700
N418        N  0.79604400  0.42161011  0.04991252    -0.47460
H419        H  0.72595723  0.40072636  0.94143148     0.06190
C420        C  0.77926594  0.58464037  0.95099404    -0.07580
Cl421      Cl  0.74399872  0.49928379  0.00132764    -0.50590
C422        C  0.81138805  0.58047628  0.06299183     0.41950
H423        H  0.64652307  0.51319409  0.93554935     0.06160
N424        N  0.82069397  0.55316117  0.94987069    -0.47300
C425        C  0.07068457  0.67555920  0.56933182     0.41800
N426        N  0.03041796  0.70408979  0.55949087     0.00690
C427        C  0.93777005  0.69728756  0.42814114    -0.07190
H428        H  0.05389968  0.70957512  0.40369340     0.06180
C429        C  0.04723043  0.82287723  0.45749647    -0.07540
Co430      Co  0.99586520  0.68346856  0.50317061     0.74180
N431        N  0.02870001  0.70543355  0.44653532    -0.26720
Co432      Co  0.99477055  0.74156538  0.44685765     0.74070
C433        C  0.05736732  0.81388461  0.42600065     0.41900
N434        N  0.03016412  0.79709832  0.54066908     0.00300
N435        N  0.02798605  0.77789625  0.44608305     0.00410
N436        N  0.94067159  0.66156065  0.46565330    -0.47570
H437        H  0.06116906  0.64494057  0.52673904     0.06160
N438        N  0.02943064  0.68413982  0.46838119     0.00690
N439        N  0.96227892  0.77846416  0.44673788     0.00430
C440        C  0.93834538  0.81720305  0.42518499     0.42040
N441        N  0.02940481  0.77440062  0.56120793    -0.26180
C442        C  0.93665720  0.66390986  0.53941997    -0.07100
N443        N  0.05412141  0.70055840  0.57884579    -0.47280
N444        N  0.94870610  0.78797878  0.42087611    -0.47510
C445        C  0.91877693  0.67478780  0.56586322     0.41810
N446        N  0.96166471  0.68369617  0.46939620     0.00680
N447        N  0.96495812  0.77576614  0.56364277    -0.26200
N448        N  0.03043734  0.68313374  0.53733122    -0.26690
N449        N  0.96340153  0.79942554  0.54425710     0.00320
H450        H  0.96094945  0.77244343  0.61193144     0.06210
H451        H  0.94687287  0.84792321  0.46784284     0.06240
N452        N  0.96062212  0.70530789  0.44789660    -0.26740
N453        N  0.02875909  0.79960654  0.46785735    -0.26350
N454        N  0.95981953  0.70401330  0.55927217     0.00680
C455        C  0.06431241  0.66865867  0.43616781     0.42080
C456        C  0.04781720  0.78189875  0.58492918    -0.07600
N457        N  0.96244097  0.80030456  0.46854894    -0.26350
H458        H  0.05003811  0.84503301  0.46880363     0.06230
N459        N  0.05029157  0.66208768  0.46316103    -0.47570
H460        H  0.04913815  0.76920894  0.60626870     0.06220
C461        C  0.94487501  0.81655297  0.58863727     0.41920
C462        C  0.05499656  0.66424400  0.54144420    -0.07100
Co463      Co  0.99593351  0.73915114  0.56078439     0.73820
N464        N  0.04857604  0.82017355  0.54965219    -0.47290
C465        C  0.92422056  0.66832567  0.44021938     0.42180
N466        N  0.93491261  0.69970806  0.57724674    -0.47280
Co467      Co  0.99588375  0.79917951  0.50540773     0.73890
C468        C  0.94713468  0.82526439  0.45719603    -0.07610
C469        C  0.04986914  0.69741905  0.42501490    -0.07170
N470        N  0.96114310  0.68304642  0.53706044    -0.26700
N471        N  0.04377917  0.78603279  0.42108438    -0.47460
H472        H  0.93192457  0.70969325  0.40749106     0.06190
C473        C  0.95486046  0.78472767  0.59136706    -0.07580
Cl474      Cl  0.99542289  0.74118997  0.50396470    -0.50590
C475        C  0.06061619  0.81213646  0.57742526     0.41950
H476        H  0.93167493  0.64469996  0.52419060     0.06160
N477        N  0.95112739  0.82436678  0.55854880    -0.47300
C478        C  0.06853124  0.57754181  0.81481007     0.41800
N479        N  0.03598644  0.55556853  0.78240956     0.00690
C480        C  0.95176149  0.41430542  0.78682377    -0.07190
H481        H  0.05114811  0.39123277  0.77365363     0.06180
C482        C  0.05774464  0.45959707  0.66486029    -0.07540
Co483      Co  0.00295986  0.49634352  0.80456870     0.74180
N484        N  0.03524575  0.43811248  0.77927284    -0.26720
Co485      Co  0.00222901  0.43988760  0.74311444     0.74070
C486        C  0.07305815  0.43051173  0.67259335     0.41900
N487        N  0.03572353  0.53179896  0.69041848     0.00300
N488        N  0.03668951  0.44102186  0.70649763     0.00410
N489        N  0.95147358  0.44817356  0.82643387    -0.47570
H490        H  0.06157893  0.53668909  0.84887779     0.06160
N491        N  0.03632000  0.45809812  0.80281042     0.00690
N492        N  0.96719222  0.44168689  0.70758679     0.00430
C493        C  0.92975351  0.43217217  0.67521205     0.42040
N494        N  0.03629976  0.55282575  0.71257873    -0.26180
C495        C  0.94892523  0.54426982  0.82809650    -0.07100
N496        N  0.05332130  0.58045749  0.78770791    -0.47280
N497        N  0.94506213  0.42131372  0.70057838    -0.47510
C498        C  0.93705193  0.57507581  0.81794019     0.41810
N499        N  0.96896566  0.45880964  0.80313403     0.00680
N500        N  0.96631777  0.55324380  0.71335846    -0.26200
N501        N  0.03722380  0.53476958  0.80486190    -0.26690
N502        N  0.96648811  0.53231254  0.69106211     0.00320
H503        H  0.93415821  0.59011779  0.72430210     0.06210
H504        H  0.94115843  0.47505189  0.64665144     0.06240
N505        N  0.96951057  0.43876347  0.77965640    -0.26740
N506        N  0.03567684  0.46395485  0.68648456    -0.26350
N507        N  0.96889506  0.55529853  0.78378670     0.00680
C508        C  0.06246714  0.41725716  0.81833085     0.42080
C509        C  0.06206568  0.56979771  0.70865177    -0.07600
N510        N  0.96777107  0.46449741  0.68749207    -0.26350
H511        H  0.06156812  0.47422980  0.64507573     0.06230
N512        N  0.05218100  0.44611954  0.82665775    -0.47570
H513        H  0.06924202  0.58887690  0.72317634     0.06220
C514        C  0.92421975  0.55805901  0.68274368     0.41920
C515        C  0.05741065  0.54665153  0.82641961    -0.07100
Co516      Co  0.00181646  0.55430147  0.74766851     0.73820
N517        N  0.05977150  0.53339498  0.67141580    -0.47290
C518        C  0.93953193  0.42010377  0.81775274     0.42180
N519        N  0.95123743  0.57971426  0.79049744    -0.47280
Co520      Co  0.00142197  0.49842548  0.68881604     0.73890
C521        C  0.94529840  0.46048540  0.66643835    -0.07610
C522        C  0.05112949  0.41246815  0.78692174    -0.07170
N523        N  0.96873578  0.53392942  0.80570947    -0.26700
N524        N  0.05847542  0.42028681  0.69874109    -0.47460
H525        H  0.95019265  0.39329014  0.77329021     0.06190
C526        C  0.94078101  0.57092088  0.70964708    -0.07580
Cl527      Cl  0.00219152  0.49709900  0.74648764    -0.50590
C528        C  0.07821186  0.55618856  0.68190794     0.41950
H529        H  0.94553952  0.53328450  0.85019397     0.06160
N530        N  0.94217147  0.53460686  0.67227840    -0.47300
C531        C  0.56467300  0.68093693  0.07567626     0.41800
N532        N  0.53652223  0.71680840  0.05452684     0.00690
C533        C  0.44996554  0.70676953  0.91574176    -0.07190
H534        H  0.54278282  0.72367762  0.89013247     0.06180
C535        C  0.55492728  0.83066461  0.96302134    -0.07540
Co536      Co  0.50154472  0.69425439  0.99707652     0.74180
N537        N  0.53003828  0.71946843  0.93801580    -0.26720
Co538      Co  0.49651116  0.75491407  0.94163273     0.74070
C539        C  0.57194094  0.82039362  0.93611283     0.41900
N540        N  0.53342997  0.80928740  0.03174630     0.00300
N541        N  0.53131618  0.79105243  0.94268718     0.00410
N542        N  0.45293369  0.66828122  0.95043329    -0.47570
H543        H  0.55548833  0.64810410  0.03447749     0.06160
N544        N  0.53294711  0.69660009  0.95834098     0.00690
N545        N  0.46028905  0.79002857  0.94617791     0.00430
C546        C  0.42039205  0.82111028  0.94182644     0.42040
N547        N  0.53548623  0.78795688  0.05330272    -0.26180
C548        C  0.45283875  0.66871136  0.04675912    -0.07100
N549        N  0.55253928  0.70942104  0.07961378    -0.47280
N550        N  0.43531538  0.79610889  0.92889043    -0.47510
C551        C  0.44383684  0.67762776  0.07858177     0.41810
N552        N  0.46675681  0.69384247  0.96123535     0.00680
N553        N  0.46724859  0.78510423  0.05649258    -0.26200
N554        N  0.53632472  0.69447531  0.03333894    -0.26690
N555        N  0.46643779  0.80751337  0.03597011     0.00320
H556        H  0.43958369  0.77584376  0.09662727     0.06210
H557        H  0.43571448  0.84987905  0.98337794     0.06240
N558        N  0.46534799  0.71689127  0.94092189    -0.26740
N559        N  0.53078264  0.81128264  0.96550746    -0.26350
N560        N  0.47066355  0.71433919  0.05732285     0.00680
C561        C  0.55656932  0.68024797  0.91681032     0.42080
C562        C  0.55932403  0.79595502  0.07166238    -0.07600
N563        N  0.46262547  0.81025782  0.96890929    -0.26350
H564        H  0.56018401  0.84968927  0.97836238     0.06230
N565        N  0.54861107  0.67271543  0.94626955    -0.47570
H566        H  0.56621516  0.78396545  0.09238372     0.06220
C567        C  0.42915113  0.81859849  0.06659823     0.41920
C568        C  0.55400507  0.67096626  0.04457344    -0.07100
Co569      Co  0.50247669  0.75132028  0.05538147     0.73820
N570        N  0.55454655  0.83132725  0.03388740    -0.47290
C571        C  0.44183011  0.67446767  0.92169980     0.42180
N572        N  0.45601173  0.70607772  0.08297297    -0.47280
Co573      Co  0.49824715  0.80944728  0.00039836     0.73890
C574        C  0.43910405  0.83054136  0.96784687    -0.07610
C575        C  0.54431735  0.71121283  0.91165599    -0.07170
N576        N  0.46985614  0.69256863  0.03557665    -0.26700
N577        N  0.55546628  0.79610052  0.92405989    -0.47460
H578        H  0.44858764  0.71899891  0.89407546     0.06190
C579        C  0.44428921  0.79003732  0.07683177    -0.07580
Cl580      Cl  0.49957799  0.75169219  0.99845492    -0.50590
C581        C  0.57238467  0.82433072  0.05802729     0.41950
H582        H  0.45049019  0.64635315  0.03574748     0.06160
N583        N  0.44447311  0.82819288  0.04143829    -0.47300
O584        O  0.84928877  0.31333030  0.61666341    -0.80800
O585        O  0.78049003  0.40752882  0.65855904    -0.80820
O586        O  0.87401769  0.36236469  0.67034346    -0.80830
O587        O  0.78034643  0.33357102  0.62654609    -0.80770
O588        O  0.82933342  0.38297344  0.68518044    -0.80900
O589        O  0.80264121  0.31819101  0.58308738    -0.80810
O590        O  0.74447388  0.38671202  0.62762748    -0.80800
O591        O  0.87910175  0.33881224  0.64903626    -0.80840
C592        C  0.86492707  0.31425826  0.64067242     1.08890
C593        C  0.75167060  0.40028441  0.65297091     1.08780
C594        C  0.85339754  0.36828792  0.69084817     1.08910
C595        C  0.78303654  0.31353284  0.60494604     1.08790
O596        O  0.82802427  0.37615784  0.55797049    -0.80800
O597        O  0.87642569  0.42158168  0.66015875    -0.80880
O598        O  0.89808966  0.34921864  0.59555574    -0.80810
O599        O  0.78672840  0.42099578  0.60061110    -0.80790
O600        O  0.83009569  0.43875175  0.61793627    -0.80840
O601        O  0.86873197  0.32471425  0.56028835    -0.80810
O602        O  0.77920446  0.37099011  0.57237504    -0.80770
O603        O  0.91394345  0.39401553  0.63830501    -0.80840
Co604      Co  0.84101671  0.34570928  0.58817830     1.51530
Co605      Co  0.82900568  0.41009206  0.65175036     1.51690
Co606      Co  0.87436079  0.37903213  0.62615048     1.51570
Co607      Co  0.78590863  0.37800600  0.61708331     1.51470
O608        O  0.82986652  0.37257109  0.62104540    -1.42730
C609        C  0.79937163  0.37972257  0.55296253     1.08820
C610        C  0.90576469  0.41538583  0.65667462     1.08910
C611        C  0.89538227  0.33055997  0.57199770     1.08840
C612        C  0.80804634  0.44045672  0.59956644     1.08820
O613        O  0.55595750  0.33557397  0.86968478    -0.80800
O614        O  0.62990527  0.43335696  0.83088930    -0.80820
O615        O  0.64354887  0.39040909  0.91463082    -0.80830
O616        O  0.57794823  0.37337811  0.77979955    -0.80770
O617        O  0.66951573  0.41311959  0.87698457    -0.80900
O618        O  0.56492847  0.38474521  0.82781395    -0.80810
O619        O  0.61301276  0.41701967  0.78696619    -0.80800
O620        O  0.59557420  0.35190368  0.89904398    -0.80840
C621        C  0.56898320  0.33821518  0.89621068     1.08890
C622        C  0.61136517  0.43544236  0.80903499     1.08780
C623        C  0.66385144  0.40962786  0.90631688     1.08910
C624        C  0.55969186  0.38619105  0.79909434     1.08790
O625        O  0.57983662  0.32127512  0.80566083    -0.80800
O626        O  0.69050794  0.36916504  0.83140373    -0.80880
O627        O  0.64644463  0.33156160  0.88309721    -0.80810
O628        O  0.63503151  0.37888613  0.74602778    -0.80790
O629        O  0.66777224  0.39949530  0.78075699    -0.80840
O630        O  0.60953727  0.31261116  0.85398121    -0.80810
O631        O  0.62560681  0.32721604  0.78319498    -0.80770
O632        O  0.67077447  0.35066463  0.87510264    -0.80840
Co633      Co  0.58838122  0.34961437  0.84296568     1.51530
Co634      Co  0.66076765  0.40124581  0.82986844     1.51690
Co635      Co  0.63083241  0.37530601  0.87519704     1.51570
Co636      Co  0.62328309  0.37249960  0.78723960     1.51470
O637        O  0.62598027  0.36772808  0.83105454    -1.42730
C638        C  0.60102383  0.31148841  0.78706811     1.08820
C639        C  0.69253156  0.35229496  0.85489297     1.08910
C640        C  0.63209867  0.30849806  0.87125908     1.08840
C641        C  0.66056059  0.39250251  0.75205181     1.08820
O642        O  0.62215469  0.15236727  0.69447323    -0.80800
O643        O  0.68046555  0.19656326  0.59192574    -0.80820
O644        O  0.67033801  0.11622643  0.65013652    -0.80830
O645        O  0.61899113  0.22914824  0.67198879    -0.80770
O646        O  0.69061632  0.15804446  0.63285458    -0.80900
O647        O  0.58196026  0.19613251  0.68442842    -0.80810
O648        O  0.66537194  0.22804151  0.62925577    -0.80800
O649        O  0.64414135  0.11321894  0.67010652    -0.80840
C650        C  0.63785535  0.12813564  0.69512584     1.08890
C651        C  0.68534998  0.22023373  0.60936829     1.08780
C652        C  0.69308650  0.13479250  0.64895184     1.08910
C653        C  0.59876051  0.21971161  0.69083430     1.08790
O654        O  0.57121495  0.16486095  0.62358371    -0.80800
O655        O  0.67602638  0.12663987  0.57868825    -0.80880
O656        O  0.59686671  0.09944740  0.64876377    -0.80810
O657        O  0.62206783  0.21282537  0.58268873    -0.80790
O658        O  0.62148944  0.16203788  0.57815667    -0.80840
O659        O  0.56719531  0.13110804  0.67661008    -0.80810
O660        O  0.57543821  0.21533073  0.62528223    -0.80770
O661        O  0.64524030  0.09200734  0.60122258    -0.80840
Co662      Co  0.59700257  0.15861333  0.65961345     1.51530
Co663      Co  0.65604811  0.15847143  0.60647016     1.51690
Co664      Co  0.63084428  0.12823512  0.62709844     1.51570
Co665      Co  0.62100386  0.21906097  0.62778779     1.51470
O666        O  0.63124600  0.17529822  0.64024154    -1.42730
C667        C  0.56015462  0.19127023  0.61930122     1.08820
C668        C  0.66696191  0.09815948  0.58166844     1.08910
C669        C  0.57418445  0.10370253  0.66828141     1.08840
C670        C  0.61715642  0.18851055  0.56720958     1.08820
O671        O  0.89169250  0.18553010  0.66478472    -0.80800
O672        O  0.82804263  0.08073134  0.70327897    -0.80820
O673        O  0.83393685  0.14986470  0.62952679    -0.80830
O674        O  0.89071253  0.15929537  0.73858792    -0.80770
O675        O  0.81588862  0.12517166  0.66859747    -0.80900
O676        O  0.92908033  0.17175678  0.70666127    -0.80810
O677        O  0.84268766  0.11851977  0.73403859    -0.80800
O678        O  0.86039105  0.16897347  0.62818857    -0.80840
C679        C  0.87290083  0.19107587  0.64398530     1.08890
C680        C  0.82371706  0.09731126  0.72766399     1.08780
C681        C  0.81164122  0.14389267  0.64758190     1.08910
C682        C  0.91279209  0.17709795  0.73120650     1.08790
O683        O  0.93724258  0.11058945  0.67219723    -0.80800
O684        O  0.82903562  0.07228641  0.63316341    -0.80880
O685        O  0.90518595  0.14379264  0.60783733    -0.80810
O686        O  0.88529898  0.07102866  0.71557580    -0.80790
O687        O  0.88537356  0.07055694  0.66495300    -0.80840
O688        O  0.94227894  0.16454431  0.63745850    -0.80810
O689        O  0.93194433  0.11222681  0.72222198    -0.80770
O690        O  0.85414334  0.10132014  0.59906492    -0.80840
Co691      Co  0.91343573  0.14861864  0.66769270     1.51530
Co692      Co  0.85068939  0.09868009  0.66543169     1.51690
Co693      Co  0.87175504  0.12309263  0.63653204     1.51570
Co694      Co  0.88681187  0.11593529  0.72569574     1.51470
O695        O  0.87698764  0.13161318  0.68353315    -1.42730
C696        C  0.94536368  0.10176841  0.69865279     1.08820
C697        C  0.83511583  0.07893427  0.60461175     1.08910
C698        C  0.93041472  0.15988871  0.61060170     1.08840
C699        C  0.89367157  0.05893301  0.69018098     1.08820
O700        O  0.62584374  0.16931881  0.91150735    -0.80800
O701        O  0.67991433  0.05308785  0.86473161    -0.80820
O702        O  0.58762553  0.10289711  0.85090718    -0.80830
O703        O  0.70973182  0.10914452  0.91248110    -0.80770
O704        O  0.61643247  0.06112197  0.85120855    -0.80900
O705        O  0.66460164  0.12185221  0.92940206    -0.80810
O706        O  0.71297653  0.08822757  0.88623710    -0.80800
O707        O  0.58239588  0.14894963  0.89224527    -0.80840
C708        C  0.59547377  0.16753616  0.91076775     1.08890
C709        C  0.70213606  0.06056111  0.88250570     1.08780
C710        C  0.59116118  0.07468911  0.84458230     1.08910
C711        C  0.69081064  0.11107085  0.93480914     1.08790
O712        O  0.69407953  0.17899897  0.91543884    -0.80800
O713        O  0.63561416  0.10257300  0.80566977    -0.80880
O714        O  0.62218221  0.16753269  0.84997420    -0.80810
O715        O  0.72486703  0.11777957  0.83958431    -0.80790
O716        O  0.69601808  0.08647080  0.81170334    -0.80840
O717        O  0.67140672  0.17437070  0.85861998    -0.80810
O718        O  0.73085457  0.15740114  0.88717878    -0.80770
O719        O  0.61259160  0.14231403  0.83146996    -0.80840
Co720      Co  0.66743620  0.14764930  0.89373209     1.51530
Co721      Co  0.65690875  0.07733325  0.83518282     1.51690
Co722      Co  0.61682314  0.12810228  0.87534309     1.51570
Co723      Co  0.69687209  0.13058532  0.87304651     1.51470
O724        O  0.65590143  0.11191072  0.86559609    -1.42730
C725        C  0.72245873  0.17850417  0.90636600     1.08820
C726        C  0.62216797  0.12869528  0.80677583     1.08910
C727        C  0.64637499  0.18480236  0.84940732     1.08840
C728        C  0.72112306  0.10088279  0.81604240     1.08820
O729        O  0.81061901  0.34627226  0.89025370    -0.80800
O730        O  0.91598393  0.29888122  0.82903458    -0.80820
O731        O  0.85191495  0.37621268  0.83523088    -0.80830
O732        O  0.82883669  0.26822195  0.88262566    -0.80770
O733        O  0.87332231  0.33588848  0.81511954    -0.80900
O734        O  0.81925277  0.29817919  0.92403841    -0.80810
O735        O  0.87507027  0.26988945  0.83634231    -0.80800
O736        O  0.83302926  0.38085261  0.86041343    -0.80840
C737        C  0.80863655  0.36766426  0.87114861     1.08890
C738        C  0.89995607  0.27505549  0.82181578     1.08780
C739        C  0.85523868  0.35770785  0.81259452     1.08910
C740        C  0.81295780  0.27451933  0.90668760     1.08790
O741        O  0.88178953  0.32316946  0.93819250    -0.80800
O742        O  0.92636750  0.36713466  0.83112362    -0.80880
O743        O  0.85502757  0.39529079  0.90748864    -0.80810
O744        O  0.91860905  0.28200658  0.88494387    -0.80790
O745        O  0.92218204  0.33314111  0.88788451    -0.80840
O746        O  0.83225753  0.36540657  0.94319174    -0.80810
O747        O  0.87379465  0.27454646  0.92681672    -0.80770
O748        O  0.90149916  0.40363193  0.85745047    -0.80840
Co749      Co  0.84621921  0.33578418  0.91278496     1.51530
Co750      Co  0.89741612  0.33659323  0.85127639     1.51690
Co751      Co  0.87670964  0.36689252  0.87342984     1.51570
Co752      Co  0.87349255  0.27586558  0.88180207     1.51470
O753        O  0.86268569  0.32049579  0.87565580    -1.42730
C754        C  0.88496574  0.29476991  0.94428443     1.08820
C755        C  0.92212965  0.39625487  0.83696332     1.08910
C756        C  0.83795530  0.39242624  0.93219884     1.08840
C757        C  0.93313321  0.30648127  0.89202694     1.08820
O758        O  0.30621897  0.14796510  0.61992380    -0.80800
O759        O  0.41459370  0.19715223  0.66734631    -0.80820
O760        O  0.35762979  0.11769186  0.67072013    -0.80830
O761        O  0.32648562  0.22866012  0.61582256    -0.80770
O762        O  0.37505163  0.16122736  0.68568450    -0.80900
O763        O  0.31098646  0.19531898  0.57954304    -0.80810
O764        O  0.37416732  0.22704795  0.65917694    -0.80800
O765        O  0.33594428  0.11562557  0.64672205    -0.80840
C766        C  0.31001072  0.12896360  0.64148810     1.08890
C767        C  0.39666457  0.21893834  0.67607305     1.08780
C768        C  0.36174894  0.13727676  0.69244411     1.08910
C769        C  0.30671994  0.22040139  0.59557017     1.08790
O770        O  0.37196826  0.16559234  0.56289841    -0.80800
O771        O  0.42693962  0.12889734  0.66687031    -0.80880
O772        O  0.35201970  0.10074474  0.59595073    -0.80810
O773        O  0.41653503  0.21192913  0.61040792    -0.80790
O774        O  0.41990323  0.16096765  0.60934131    -0.80840
O775        O  0.32127378  0.12756122  0.56374408    -0.80810
O776        O  0.36908692  0.21550661  0.56949798    -0.80770
O777        O  0.40234769  0.09220264  0.64094739    -0.80840
Co778      Co  0.33837297  0.15735205  0.59176873     1.51530
Co779      Co  0.39642241  0.15870960  0.64744817     1.51690
Co780      Co  0.37630869  0.12901862  0.62803177     1.51570
Co781      Co  0.37110432  0.21868981  0.61450907     1.51470
O782        O  0.35998540  0.17477956  0.62528407    -1.42730
C783        C  0.37932321  0.19252024  0.55496975     1.08820
C784        C  0.42316989  0.09972573  0.66103893     1.08910
C785        C  0.33203513  0.10169755  0.57328614     1.08840
C786        C  0.43159541  0.18725176  0.60501364     1.08820
O787        O  0.12587530  0.33806280  0.56692070    -0.80800
O788        O  0.17767995  0.44641486  0.61833570    -0.80820
O789        O  0.10100727  0.38579603  0.65299986    -0.80830
O790        O  0.21067025  0.38994877  0.57322593    -0.80770
O791        O  0.12108358  0.42996652  0.64248933    -0.80900
O792        O  0.16003813  0.39514808  0.57167108    -0.80810
O793        O  0.22555864  0.43006440  0.61804845    -0.80800
O794        O  0.09754435  0.33973462  0.60974341    -0.80840
C795        C  0.10036154  0.33171762  0.58114744     1.08890
C796        C  0.20510240  0.44876258  0.60913616     1.08780
C797        C  0.09941810  0.41479746  0.65516962     1.08910
C798        C  0.18639841  0.40208797  0.56165014     1.08790
O799        O  0.19634404  0.33384083  0.57448215    -0.80800
O800        O  0.15439263  0.39969130  0.68976894    -0.80880
O801        O  0.14015107  0.32845572  0.65478890    -0.80810
O802        O  0.23220631  0.38146987  0.66152043    -0.80790
O803        O  0.20882489  0.42493627  0.67508903    -0.80840
O804        O  0.16085629  0.31643540  0.61240197    -0.80810
O805        O  0.22274355  0.33919613  0.61681527    -0.80770
O806        O  0.13756357  0.35359704  0.67072519    -0.80840
Co807      Co  0.15827501  0.35728314  0.59432879     1.51530
Co808      Co  0.16603499  0.42284614  0.65426359     1.51690
Co809      Co  0.13304749  0.36425381  0.62631536     1.51570
Co810      Co  0.22024660  0.38435545  0.61809899     1.51470
O811        O  0.17544187  0.38224859  0.63146279    -1.42730
C812        C  0.21802109  0.32395522  0.59249614     1.08820
C813        C  0.14702158  0.37161903  0.69250257     1.08910
C814        C  0.15400782  0.30852082  0.63878782     1.08840
C815        C  0.22987650  0.40451263  0.67942152     1.08820
O816        O  0.37528183  0.30197817  0.84963504    -0.80800
O817        O  0.33180100  0.41192863  0.79716526    -0.80820
O818        O  0.32813149  0.35684753  0.87869282    -0.80830
O819        O  0.37561307  0.31825105  0.77206753    -0.80770
O820        O  0.31310532  0.37769230  0.83649200    -0.80900
O821        O  0.41405569  0.30394371  0.80324653    -0.80810
O822        O  0.33683798  0.36914368  0.76976162    -0.80800
O823        O  0.34881252  0.33304941  0.88057001    -0.80840
C824        C  0.35353087  0.30648744  0.86820020     1.08890
C825        C  0.32372663  0.39496009  0.77418117     1.08780
C826        C  0.30644044  0.36485842  0.86066103     1.08910
C827        C  0.39574095  0.29856026  0.78041828     1.08790
O828        O  0.43487202  0.36475229  0.82824647    -0.80800
O829        O  0.33766128  0.42662109  0.86822309    -0.80880
O830        O  0.40080934  0.34614005  0.89532158    -0.80810
O831        O  0.38904840  0.40802763  0.78059593    -0.80790
O832        O  0.39279591  0.41427983  0.83100091    -0.80840
O833        O  0.43244460  0.31499377  0.86852008    -0.80810
O834        O  0.42575323  0.35692993  0.77935683    -0.80770
O835        O  0.36094553  0.39774329  0.90351177    -0.80840
Co836      Co  0.40440598  0.33313034  0.83937984     1.51530
Co837      Co  0.35285600  0.39482467  0.83624158     1.51690
Co838      Co  0.37103859  0.37185747  0.86680645     1.51570
Co839      Co  0.38116086  0.36279027  0.77743798     1.51470
O840        O  0.37122660  0.35539305  0.82182893    -1.42730
C841        C  0.44187927  0.36869561  0.80028125     1.08820
C842        C  0.34306136  0.42059152  0.89711014     1.08910
C843        C  0.42270276  0.32551372  0.89439228     1.08840
C844        C  0.39575528  0.42445522  0.80399747     1.08820
O845        O  0.16778015  0.36327870  0.94461623    -0.80800
O846        O  0.07271128  0.33093018  0.88592489    -0.80820
O847        O  0.09477311  0.39914906  0.86202926    -0.80830
O848        O  0.11581111  0.27740255  0.93450340    -0.80770
O849        O  0.07624721  0.36361027  0.82968839    -0.80900
O850        O  0.11378987  0.32759324  0.94069165    -0.80810
O851        O  0.07499711  0.27979554  0.88749268    -0.80800
O852        O  0.14447478  0.39213814  0.90873575    -0.80840
C853        C  0.16312696  0.38981161  0.93240983     1.08890
C854        C  0.06059455  0.30505987  0.89083066     1.08780
C855        C  0.07798628  0.39248917  0.83810875     1.08910
C856        C  0.10417767  0.30088383  0.94727859     1.08790
O857        O  0.17477741  0.29600434  0.93197114    -0.80800
O858        O  0.13039289  0.32735151  0.82026284    -0.80880
O859        O  0.16125175  0.37430194  0.86379998    -0.80810
O860        O  0.12170405  0.26143150  0.84492159    -0.80790
O861        O  0.08469307  0.29303113  0.82980539    -0.80840
O862        O  0.18629530  0.33927016  0.89149527    -0.80810
O863        O  0.16395778  0.26205634  0.89439083    -0.80770
O864        O  0.14053124  0.37277213  0.83757441    -0.80840
Co865      Co  0.15098277  0.33362921  0.91584777     1.51530
Co866      Co  0.10188159  0.33125303  0.85270657     1.51690
Co867      Co  0.11888347  0.36235827  0.87848392     1.51570
Co868      Co  0.11986972  0.27225377  0.88968390     1.51470
O869        O  0.13305939  0.31565805  0.88068820    -1.42730
C870        C  0.18060786  0.27080031  0.91704513     1.08820
C871        C  0.14055936  0.35328250  0.81544634     1.08910
C872        C  0.18564480  0.35890721  0.87046943     1.08840
C873        C  0.10016057  0.26787110  0.82598937     1.08820
O874        O  0.17537695  0.13102354  0.66315072    -0.80800
O875        O  0.07935546  0.17703050  0.69961206    -0.80820
O876        O  0.13709323  0.17444366  0.62009382    -0.80830
O877        O  0.15980978  0.11189225  0.71881840    -0.80770
O878        O  0.13287746  0.17108563  0.67026433    -0.80900
O879        O  0.18788649  0.07794209  0.69258518    -0.80810
O880        O  0.11176445  0.15219970  0.73029193    -0.80800
O881        O  0.18106973  0.12943703  0.61399027    -0.80840
C882        C  0.19219515  0.13290558  0.64045632     1.08890
C883        C  0.09276259  0.17477977  0.72633333     1.08780
C884        C  0.14253711  0.18465189  0.64700257     1.08910
C885        C  0.18367607  0.09372622  0.71718523     1.08790
O886        O  0.13256314  0.05475331  0.67331287    -0.80800
O887        O  0.07878047  0.16846579  0.62978706    -0.80880
O888        O  0.13877950  0.08767969  0.58964303    -0.80810
O889        O  0.08436441  0.10218422  0.70672006    -0.80790
O890        O  0.05907433  0.12136962  0.66798621    -0.80840
O891        O  0.17169158  0.07253394  0.62625248    -0.80810
O892        O  0.11063240  0.08293323  0.71021471    -0.80770
O893        O  0.09195022  0.13466791  0.59339792    -0.80840
Co894      Co  0.15449988  0.09217867  0.66618558     1.51530
Co895      Co  0.09616359  0.14622272  0.66814584     1.51690
Co896      Co  0.13566577  0.13040183  0.60667609     1.51570
Co897      Co  0.12143726  0.12665188  0.69312556     1.51470
O898        O  0.12013169  0.11180034  0.64787682    -1.42730
C899        C  0.11668839  0.05632966  0.69758091     1.08820
C900        C  0.07687633  0.15850109  0.60172572     1.08910
C901        C  0.16193761  0.07151706  0.59806781     1.08840
C902        C  0.06012300  0.10268322  0.69000115     1.08820
O903        O  0.33952844  0.18454211  0.89550715    -0.80800
O904        O  0.29699071  0.08464830  0.82459429    -0.80820
O905        O  0.37424205  0.14990779  0.83668902    -0.80830
O906        O  0.26495723  0.16208974  0.89188591    -0.80770
O907        O  0.33523527  0.12794324  0.81470993    -0.80900
O908        O  0.29710012  0.16914151  0.93175638    -0.80810
O909        O  0.26610234  0.12234188  0.84003949    -0.80800
O910        O  0.37497825  0.16803010  0.86298399    -0.80840
C911        C  0.35965714  0.19006655  0.87601991     1.08890
C912        C  0.27262794  0.10125397  0.82049480     1.08780
C913        C  0.35727131  0.14610306  0.81303133     1.08910
C914        C  0.27290176  0.17684795  0.91614590     1.08790
O915        O  0.32850430  0.10756893  0.93588963    -0.80800
O916        O  0.36639377  0.07356124  0.82670535    -0.80880
O917        O  0.39500070  0.14193265  0.90655972    -0.80810
O918        O  0.28247499  0.07338522  0.88059003    -0.80790
O919        O  0.33295255  0.07030943  0.88184272    -0.80840
O920        O  0.36535048  0.16051553  0.94459975    -0.80810
O921        O  0.27843044  0.11158302  0.92998137    -0.80770
O922        O  0.40111193  0.09968538  0.85473977    -0.80840
Co923      Co  0.33503231  0.14651275  0.91440494     1.51530
Co924      Co  0.33510932  0.10002774  0.84861399     1.51690
Co925      Co  0.36508002  0.12248055  0.87323183     1.51570
Co926      Co  0.27501127  0.11820718  0.88482042     1.51470
O927        O  0.31825610  0.13230913  0.87648965    -1.42730
C928        C  0.30146773  0.10060260  0.94408587     1.08820
C929        C  0.39488777  0.07889578  0.83408346     1.08910
C930        C  0.39223093  0.15714487  0.93238607     1.08840
C931        C  0.30690316  0.06010225  0.88957430     1.08820
O932        O  0.56645867  0.86293843  0.67757295    -0.80800
O933        O  0.60658883  0.82844413  0.57296547    -0.80820
O934        O  0.64323935  0.89873556  0.59767429    -0.80830
O935        O  0.56700565  0.77794818  0.62529310    -0.80770
O936        O  0.66334486  0.86226270  0.56693192    -0.80900
O937        O  0.56281375  0.82830470  0.62413643    -0.80810
O938        O  0.60773889  0.77795647  0.57792627    -0.80800
O939        O  0.59820730  0.89203713  0.64898672    -0.80840
C940        C  0.57598836  0.88970127  0.66942787     1.08890
C941        C  0.59895866  0.80183906  0.56359607     1.08780
C942        C  0.66021735  0.89137816  0.57411061     1.08910
C943        C  0.55312927  0.80192951  0.61640697     1.08790
O944        O  0.57797709  0.79523477  0.68269695    -0.80800
O945        O  0.68373937  0.82863266  0.61587518    -0.80880
O946        O  0.64906521  0.87157811  0.66405804    -0.80810
O947        O  0.65583662  0.76221586  0.61946684    -0.80790
O948        O  0.66619231  0.79152778  0.57911545    -0.80840
O949        O  0.62129701  0.83764621  0.69039371    -0.80810
O950        O  0.61450841  0.76273817  0.66709295    -0.80770
O951        O  0.67158630  0.86920635  0.64156758    -0.80840
Co952      Co  0.59253938  0.83309796  0.65760906     1.51530
Co953      Co  0.64505618  0.83082260  0.59620154     1.51690
Co954      Co  0.62837234  0.86234234  0.62282722     1.51570
Co955      Co  0.61207874  0.77228276  0.62296239     1.51470
O956        O  0.62463310  0.81552472  0.63404387    -1.42730
C957        C  0.59417333  0.77052801  0.68667566     1.08820
C958        C  0.69195758  0.84973069  0.63286147     1.08910
C959        C  0.64262348  0.85707101  0.68911680     1.08840
C960        C  0.67368144  0.76941048  0.59755830     1.08820
O961        O  0.86306268  0.66410848  0.56500208    -0.80800
O962        O  0.83233612  0.56497030  0.61140976    -0.80820
O963        O  0.90163746  0.59691701  0.65025062    -0.80830
O964        O  0.77255012  0.61820602  0.57633247    -0.80770
O965        O  0.86939721  0.56073881  0.66770209    -0.80900
O966        O  0.82125098  0.61234867  0.56372645    -0.80810
O967        O  0.78133629  0.56916153  0.61354840    -0.80800
O968        O  0.89088097  0.64312002  0.60341161    -0.80840
C969        C  0.88933318  0.66015059  0.57856926     1.08890
C970        C  0.80571830  0.55696397  0.60218246     1.08780
C971        C  0.89725758  0.57202808  0.66582473     1.08910
C972        C  0.79276061  0.60855065  0.55801468     1.08790
O973        O  0.79376127  0.67261763  0.58271191    -0.80800
O974        O  0.83167179  0.60651357  0.68932159    -0.80880
O975        O  0.86957071  0.65895794  0.65124068    -0.80810
O976        O  0.76823898  0.60873096  0.66608356    -0.80790
O977        O  0.79681409  0.56666838  0.67043642    -0.80840
O978        O  0.83857081  0.68136179  0.61754402    -0.80810
O979        O  0.76499211  0.65941845  0.62375970    -0.80770
O980        O  0.86468730  0.63975422  0.67456319    -0.80840
Co981      Co  0.83202573  0.64616612  0.59239801     1.51530
Co982      Co  0.83461630  0.58736334  0.64999042     1.51690
Co983      Co  0.86337844  0.61617256  0.63397860     1.51570
Co984      Co  0.77357488  0.61425472  0.62101721     1.51470
O985        O  0.81733888  0.62498096  0.62809133    -1.42730
C986        C  0.77142685  0.67824209  0.60178308     1.08820
C987        C  0.84528367  0.63083636  0.69452627     1.08910
C988        C  0.85543713  0.68274013  0.64058997     1.08840
C989        C  0.77327618  0.58289569  0.67901167     1.08820
O990        O  0.66934440  0.55903139  0.86862376    -0.80800
O991        O  0.56540690  0.60325318  0.83310498    -0.80820
O992        O  0.59336588  0.64095806  0.90015063    -0.80830
O993        O  0.61534667  0.55879769  0.78412745    -0.80770
O994        O  0.56382647  0.66242732  0.86378990    -0.80900
O995        O  0.61553835  0.55728970  0.83452965    -0.80810
O996        O  0.56971374  0.60170854  0.78265980    -0.80800
O997        O  0.64140803  0.59384873  0.89489736    -0.80840
C998        C  0.66073842  0.57052559  0.89460461     1.08890
C999        C  0.55634267  0.59326662  0.80718757     1.08780
C1000       C  0.57135677  0.65972094  0.89274103     1.08910
C1001       C  0.60531732  0.54777719  0.80909513     1.08790
O1002       O  0.67462837  0.56780479  0.79939546    -0.80800
O1003       O  0.61295409  0.67708668  0.82747395    -0.80880
O1004       O  0.65920398  0.64162432  0.87375204    -0.80810
O1005       O  0.61275480  0.64715084  0.76303164    -0.80790
O1006       O  0.57320111  0.65969373  0.79293026    -0.80840
O1007       O  0.68425702  0.61211414  0.84004221    -0.80810
O1008       O  0.65919909  0.60234835  0.76462770    -0.80770
O1009       O  0.63768289  0.66512544  0.86827544    -0.80840
Co1010     Co  0.65045622  0.58493944  0.83708286     1.51530
Co1011     Co  0.59094034  0.64033843  0.83252209     1.51690
Co1012     Co  0.61665005  0.62336374  0.86407476     1.51570
Co1013     Co  0.61494623  0.60334919  0.77548754     1.51470
O1014       O  0.62776545  0.61704126  0.81781033    -1.42730
C1015       C  0.67819594  0.58158896  0.77319946     1.08820
C1016       C  0.63073113  0.68501159  0.84782467     1.08910
C1017       C  0.68421419  0.63285052  0.86021489     1.08840
C1018       C  0.59097533  0.66568467  0.76987531     1.08820
O1019       O  0.94250535  0.83193425  0.64286735    -0.80800
O1020       O  0.87968375  0.92545646  0.66487916    -0.80820
O1021       O  0.85400425  0.89159285  0.60105098    -0.80830
O1022       O  0.92883626  0.88978456  0.72557057    -0.80770
O1023       O  0.82362076  0.91814582  0.63306778    -0.80900
O1024       O  0.93467462  0.88758512  0.67547309    -0.80810
O1025       O  0.87987290  0.92785837  0.71555478    -0.80800
O1026       O  0.90644121  0.85172139  0.61167506    -0.80840
C1027       C  0.93156268  0.83552555  0.61541881     1.08890
C1028       C  0.88856477  0.93808946  0.68960026     1.08780
C1029       C  0.83196291  0.91142436  0.60512636     1.08910
C1030       C  0.94338183  0.89723700  0.70148608     1.08790
O1031       O  0.92824040  0.82846287  0.71279467    -0.80800
O1032       O  0.81306469  0.86657836  0.67054505    -0.80880
O1033       O  0.86374153  0.82676670  0.63185078    -0.80810
O1034       O  0.83832673  0.88162545  0.73724290    -0.80790
O1035       O  0.82347416  0.91569832  0.70243952    -0.80840
O1036       O  0.89242898  0.81122612  0.67083730    -0.80810
O1037       O  0.88940539  0.84170622  0.74426562    -0.80770
O1038       O  0.83632117  0.84375173  0.63288187    -0.80840
Co1039     Co  0.91255973  0.84873749  0.67245972     1.51530
Co1040     Co  0.84656038  0.89531000  0.66658225     1.51690
Co1041     Co  0.87213041  0.87297855  0.63964993     1.51570
Co1042     Co  0.88335710  0.88434321  0.72875608     1.51470
O1043       O  0.87521374  0.86577367  0.68707386    -1.42730
C1044       C  0.91202680  0.82391886  0.73752874     1.08820
C1045       C  0.81286171  0.84617485  0.65041165     1.08910
C1046       C  0.87516013  0.80524095  0.64894043     1.08840
C1047       C  0.81832370  0.90079252  0.72739107     1.08820
O1048       O  0.82392187  0.63433220  0.93756051    -0.80800
O1049       O  0.92039834  0.65859996  0.89015803    -0.80820
O1050       O  0.89498271  0.59426492  0.85237197    -0.80830
O1051       O  0.87666691  0.71606221  0.93361576    -0.80770
O1052       O  0.92537319  0.62922682  0.83059332    -0.80900
O1053       O  0.87841168  0.66598430  0.93673705    -0.80810
O1054       O  0.92298670  0.70961502  0.89243463    -0.80800
O1055       O  0.84714922  0.60456986  0.90179398    -0.80840
C1056       C  0.82915347  0.60753943  0.92610237     1.08890
C1057       C  0.93460860  0.68299099  0.89694800     1.08780
C1058       C  0.91844338  0.60034406  0.83473654     1.08910
C1059       C  0.88589344  0.69208552  0.94703097     1.08790
O1060       O  0.81945513  0.70134905  0.92451599    -0.80800
O1061       O  0.87762468  0.66844408  0.81459954    -0.80880
O1062       O  0.82910350  0.62422786  0.85363085    -0.80810
O1063       O  0.88249842  0.73228879  0.84485134    -0.80790
O1064       O  0.92055129  0.70013188  0.83403004    -0.80840
O1065       O  0.80696105  0.65872886  0.88455364    -0.80810
O1066       O  0.83493836  0.73426622  0.88815248    -0.80770
O1067       O  0.84847464  0.63141957  0.82921213    -0.80840
Co1068     Co  0.84258737  0.66243510  0.90960543     1.51530
Co1069     Co  0.89835825  0.66158087  0.85177297     1.51690
Co1070     Co  0.87288571  0.63248947  0.86957010     1.51570
Co1071     Co  0.87859785  0.72121214  0.88880042     1.51470
O1072       O  0.86340910  0.67939281  0.87566823    -1.42730
C1073       C  0.81507086  0.72575473  0.90805868     1.08820
C1074       C  0.85444863  0.65278687  0.80992663     1.08910
C1075       C  0.80507566  0.63882647  0.86374081     1.08840
C1076       C  0.90631452  0.72587945  0.82911366     1.08820
O1077       O  0.62869269  0.94218618  0.83826842    -0.80800
O1078       O  0.67278825  0.89286618  0.93661733    -0.80820
O1079       O  0.59455385  0.84949716  0.89509005    -0.80830
O1080       O  0.72210949  0.92809156  0.87932819    -0.80770
O1081       O  0.62579463  0.83940498  0.93530247    -0.80900
O1082       O  0.67342216  0.93954827  0.88855762    -0.80810
O1083       O  0.72170650  0.88533431  0.92385923    -0.80800
O1084       O  0.60276581  0.89985012  0.85320345    -0.80840
C1085       C  0.60319988  0.92666498  0.83964047     1.08890
C1086       C  0.70153686  0.89666220  0.94176776     1.08780
C1087       C  0.59878365  0.83701257  0.92163545     1.08910
C1088       C  0.70195997  0.94514313  0.89191662     1.08790
O1089       O  0.69872461  0.92553845  0.82506692    -0.80800
O1090       O  0.66056285  0.81699435  0.89125379    -0.80880
O1091       O  0.62802142  0.85212182  0.83291267    -0.80810
O1092       O  0.72597946  0.83718959  0.88003485    -0.80790
O1093       O  0.70133763  0.83064678  0.92443729    -0.80840
O1094       O  0.65373389  0.89242055  0.81618449    -0.80810
O1095       O  0.72498501  0.88201471  0.83368202    -0.80770
O1096       O  0.63284146  0.83023173  0.85257794    -0.80840
Co1097     Co  0.66147287  0.91432408  0.85310020     1.51530
Co1098     Co  0.66322212  0.85632446  0.91101750     1.51690
Co1099     Co  0.63158390  0.86876532  0.87724192     1.51570
Co1100     Co  0.72179604  0.88250013  0.87856702     1.51470
O1101       O  0.67696808  0.87748819  0.87177677    -1.42730
C1102       C  0.71927661  0.90529453  0.81675164     1.08820
C1103       C  0.64811665  0.80979820  0.86679906     1.08910
C1104       C  0.63939088  0.86822292  0.81083204     1.08840
C1105       C  0.72197232  0.82182311  0.90466717     1.08820
O1106       O  0.32244357  0.86997139  0.57001758    -0.80800
O1107       O  0.43383546  0.82675431  0.62846455    -0.80820
O1108       O  0.39811455  0.91162584  0.64540184    -0.80830
O1109       O  0.36072967  0.78006024  0.58302895    -0.80770
O1110       O  0.41861641  0.87197171  0.67066495    -0.80900
O1111       O  0.37064666  0.82822685  0.56993715    -0.80810
O1112       O  0.41293918  0.78603444  0.60831120    -0.80800
O1113       O  0.35198799  0.89853122  0.60189706    -0.80840
C1114       C  0.33255336  0.89630016  0.57873747     1.08890
C1115       C  0.43420142  0.80556493  0.60897081     1.08780
C1116       C  0.41717171  0.90152997  0.66505323     1.08910
C1117       C  0.36986784  0.79967663  0.56359615     1.08790
O1118       O  0.31141336  0.80888855  0.59616691    -0.80800
O1119       O  0.37607849  0.82611124  0.69412211    -0.80880
O1120       O  0.34003918  0.88673839  0.65941606    -0.80810
O1121       O  0.37799896  0.74416811  0.63445964    -0.80790
O1122       O  0.40283386  0.77637700  0.66648533    -0.80840
O1123       O  0.31002951  0.85947967  0.62872054    -0.80810
O1124       O  0.32653375  0.78303892  0.63779760    -0.80770
O1125       O  0.36125250  0.87365383  0.68101017    -0.80840
Co1126     Co  0.34148005  0.84475546  0.60017870     1.51530
Co1127     Co  0.40463888  0.82562149  0.66174203     1.51690
Co1128     Co  0.37806876  0.87371433  0.63588095     1.51570
Co1129     Co  0.37061481  0.78634842  0.62678823     1.51470
O1130       O  0.36654270  0.83026016  0.63249090    -1.42730
C1131       C  0.30697902  0.78756715  0.61618796     1.08820
C1132       C  0.36235131  0.85082162  0.70019780     1.08910
C1133       C  0.31323594  0.87798868  0.65087503     1.08840
C1134       C  0.39444291  0.74829064  0.65852279     1.08820
O1135       O  0.31761893  0.62260339  0.84818684    -0.80800
O1136       O  0.41101660  0.65199965  0.77465872    -0.80820
O1137       O  0.37430770  0.66608210  0.87064438    -0.80830
O1138       O  0.33640508  0.62409136  0.77551889    -0.80770
O1139       O  0.38920904  0.68113342  0.82405204    -0.80900
O1140       O  0.31819959  0.58416643  0.80146305    -0.80810
O1141       O  0.38922923  0.62104013  0.73939453    -0.80800
O1142       O  0.34941797  0.64752588  0.87933768    -0.80840
C1143       C  0.32269991  0.64409758  0.86675088     1.08890
C1144       C  0.40333093  0.64624688  0.74603376     1.08780
C1145       C  0.37933122  0.68712560  0.85037780     1.08910
C1146       C  0.31608376  0.60285814  0.77858881     1.08790
O1147       O  0.37346187  0.55709235  0.82653175    -0.80800
O1148       O  0.43030833  0.65668872  0.86934556    -0.80880
O1149       O  0.35645606  0.59403321  0.89584412    -0.80810
O1150       O  0.42183098  0.59214636  0.78276881    -0.80790
O1151       O  0.44223702  0.61160932  0.82409346    -0.80840
O1152       O  0.32374082  0.56490907  0.86798201    -0.80810
O1153       O  0.37026394  0.56856184  0.77649235    -0.80770
O1154       O  0.40810708  0.63164949  0.90794839    -0.80840
Co1155     Co  0.34623271  0.59021914  0.83915259     1.51530
Co1156     Co  0.41533272  0.64694032  0.82294558     1.51690
Co1157     Co  0.38746548  0.62103811  0.86954494     1.51570
Co1158     Co  0.38047644  0.61237486  0.78147919     1.51470
O1159       O  0.37620944  0.61871182  0.82566235    -1.42730
C1160       C  0.37489539  0.54963467  0.79818924     1.08820
C1161       C  0.42708365  0.65213390  0.89895598     1.08910
C1162       C  0.33399502  0.57401224  0.89430452     1.08840
C1163       C  0.44144003  0.59097418  0.80396318     1.08820
O1164       O  0.14599461  0.68859151  0.62718368    -0.80800
O1165       O  0.20576432  0.57587771  0.66824311    -0.80820
O1166       O  0.12956022  0.63792034  0.68170073    -0.80830
O1167       O  0.22061008  0.67317541  0.62862750    -0.80770
O1168       O  0.16444749  0.60372966  0.68844372    -0.80900
O1169       O  0.19168913  0.68686065  0.58870643    -0.80810
O1170       O  0.22617482  0.62235935  0.66512202    -0.80800
O1171       O  0.12249987  0.65960550  0.66186447    -0.80840
C1172       C  0.13196973  0.68582321  0.65225959     1.08890
C1173       C  0.22609634  0.59593241  0.67733835     1.08780
C1174       C  0.14850658  0.62433120  0.69956432     1.08910
C1175       C  0.21430202  0.69210884  0.60732156     1.08790
O1176       O  0.16867704  0.62572762  0.56713437    -0.80800
O1177       O  0.13088394  0.56105508  0.66171607    -0.80880
O1178       O  0.10097974  0.64647856  0.60719582    -0.80810
O1179       O  0.22049656  0.58365472  0.61124670    -0.80790
O1180       O  0.17119377  0.57184080  0.60656435    -0.80840
O1181       O  0.12627113  0.67366145  0.57106010    -0.80810
O1182       O  0.21755492  0.63498298  0.57601355    -0.80770
O1183       O  0.09545967  0.59765404  0.65150312    -0.80840
Co1184     Co  0.15654483  0.65639008  0.59824985     1.51530
Co1185     Co  0.16488635  0.59051875  0.64704536     1.51690
Co1186     Co  0.13090370  0.62098547  0.63733344     1.51570
Co1187     Co  0.21951035  0.62879082  0.62108263     1.51470
O1188       O  0.17523318  0.63318795  0.63073528    -1.42730
C1189       C  0.19664162  0.62389941  0.55907825     1.08820
C1190       C  0.10257187  0.57157229  0.66349358     1.08910
C1191       C  0.10080917  0.66466009  0.58299858     1.08840
C1192       C  0.19923656  0.56674094  0.59999507     1.08820
O1193       O  0.17483126  0.91780052  0.62172810    -0.80800
O1194       O  0.06209701  0.87100904  0.66285060    -0.80820
O1195       O  0.09719807  0.85297814  0.58728425    -0.80830
O1196       O  0.11293436  0.90956858  0.70425383    -0.80770
O1197       O  0.08189088  0.82421291  0.62670035    -0.80900
O1198       O  0.13446221  0.93682541  0.66689412    -0.80810
O1199       O  0.08651750  0.89027810  0.70186189    -0.80800
O1200       O  0.14419873  0.90023034  0.58400556    -0.80840
C1201       C  0.16553005  0.91821047  0.59353744     1.08890
C1202       C  0.06203136  0.88894488  0.68557086     1.08780
C1203       C  0.08038800  0.83144296  0.59814548     1.08910
C1204       C  0.11873096  0.93583803  0.69128451     1.08790
O1205       O  0.18973509  0.91512066  0.68668135    -0.80800
O1206       O  0.13732433  0.82238723  0.66565377    -0.80880
O1207       O  0.18678182  0.85958728  0.61049102    -0.80810
O1208       O  0.11428015  0.84148867  0.72529990    -0.80790
O1209       O  0.08224047  0.81660012  0.69446493    -0.80840
O1210       O  0.17951779  0.86016275  0.65905644    -0.80810
O1211       O  0.16253495  0.88055724  0.71276841    -0.80770
O1212       O  0.14056179  0.81398134  0.61618671    -0.80840
Co1213     Co  0.15727984  0.89921952  0.66092787     1.51530
Co1214     Co  0.09983177  0.84672282  0.66366155     1.51690
Co1215     Co  0.14083133  0.85803397  0.60201217     1.51570
Co1216     Co  0.12386320  0.86571797  0.68777849     1.51470
O1217       O  0.12366055  0.87929210  0.64211391    -1.42730
C1218       C  0.18604829  0.89902650  0.71084259     1.08820
C1219       C  0.14175854  0.80452419  0.64370602     1.08910
C1220       C  0.19769012  0.85810450  0.63736478     1.08840
C1221       C  0.09510756  0.81916723  0.72123919     1.08820
O1222       O  0.19251517  0.67085911  0.88807827    -0.80800
O1223       O  0.08775944  0.70092856  0.82064283    -0.80820
O1224       O  0.16175952  0.62850602  0.83748747    -0.80830
O1225       O  0.16001837  0.73580108  0.89104771    -0.80770
O1226       O  0.13395320  0.66207849  0.81108409    -0.80900
O1227       O  0.17055758  0.70289204  0.92863823    -0.80810
O1228       O  0.12027646  0.73514030  0.84078493    -0.80800
O1229       O  0.18265878  0.62932621  0.86242165    -0.80840
C1230       C  0.20209032  0.64984649  0.87158826     1.08890
C1231       C  0.10102731  0.72762013  0.81995033     1.08780
C1232       C  0.15758372  0.64555989  0.81355170     1.08910
C1233       C  0.17611814  0.72840574  0.91433585     1.08790
O1234       O  0.11411430  0.66120677  0.92790704    -0.80800
O1235       O  0.07941804  0.63245006  0.81981773    -0.80880
O1236       O  0.15094224  0.59654860  0.90096583    -0.80810
O1237       O  0.07309717  0.71272406  0.87894262    -0.80790
O1238       O  0.07481552  0.66199029  0.87564463    -0.80840
O1239       O  0.17152462  0.63106860  0.93363803    -0.80810
O1240       O  0.11117796  0.71175335  0.92823813    -0.80770
O1241       O  0.10745400  0.60264355  0.85075750    -0.80840
Co1242     Co  0.15351305  0.66424218  0.90634925     1.51530
Co1243     Co  0.10436512  0.66210113  0.84276945     1.51690
Co1244     Co  0.13697786  0.63355422  0.87702110     1.51570
Co1245     Co  0.11718856  0.72187731  0.88395085     1.51470
O1246       O  0.13364766  0.68094719  0.86922348    -1.42730
C1247       C  0.10343538  0.68582962  0.93933429     1.08820
C1248       C  0.08595954  0.60528330  0.82950202     1.08910
C1249       C  0.16726549  0.60246242  0.92520020     1.08840
C1250       C  0.06097491  0.68654585  0.88227991     1.08820
O1251       O  0.33802951  0.86829621  0.81256061    -0.80800
O1252       O  0.29447154  0.83030859  0.92638528    -0.80820
O1253       O  0.37503237  0.83089203  0.86809661    -0.80830
O1254       O  0.26354689  0.87756789  0.83611075    -0.80770
O1255       O  0.33287316  0.81182127  0.88659217    -0.80900
O1256       O  0.29649327  0.91214639  0.81740408    -0.80810
O1257       O  0.26209007  0.83909331  0.88771303    -0.80800
O1258       O  0.37502181  0.84984264  0.84214979    -0.80840
C1259       C  0.35986346  0.84991639  0.81660408     1.08890
C1260       C  0.26973490  0.82345708  0.91130290     1.08780
C1261       C  0.35891180  0.80769679  0.87588660     1.08910
C1262       C  0.27217039  0.89534673  0.81445058     1.08790
O1263       O  0.33063365  0.93165166  0.87388330    -0.80800
O1264       O  0.36529203  0.83306206  0.93598585    -0.80880
O1265       O  0.39271008  0.90098404  0.85555866    -0.80810
O1266       O  0.28028454  0.89082224  0.92482653    -0.80790
O1267       O  0.33087395  0.88919172  0.92910498    -0.80840
O1268       O  0.36422497  0.92478849  0.81993702    -0.80810
O1269       O  0.28033681  0.92743914  0.87421555    -0.80770
O1270       O  0.39890452  0.85969177  0.90755282    -0.80840
Co1271     Co  0.33440840  0.89973516  0.84256786     1.51530
Co1272     Co  0.33279674  0.85019444  0.90676032     1.51690
Co1273     Co  0.36263719  0.87324419  0.88176008     1.51570
Co1274     Co  0.27349029  0.88297363  0.88018196     1.51470
O1275       O  0.31642313  0.87002559  0.86934418    -1.42730
C1276       C  0.30462226  0.94086799  0.88300708     1.08820
C1277       C  0.39370809  0.83913508  0.92850944     1.08910
C1278       C  0.39077850  0.91908761  0.83172626     1.08840
C1279       C  0.30504773  0.89933159  0.93798749     1.08820
O1280       O  0.17311775  0.62132705  0.32534421    -0.80800
O1281       O  0.19287815  0.67704081  0.41154704    -0.80820
O1282       O  0.11762541  0.65496758  0.35045676    -0.80830
O1283       O  0.23106442  0.60073132  0.34529088    -0.80770
O1284       O  0.13531979  0.68321020  0.39063844    -0.80900
O1285       O  0.19786072  0.56740524  0.32495574    -0.80810
O1286       O  0.22086550  0.65194917  0.37736204    -0.80800
O1287       O  0.12433058  0.63275994  0.32659435    -0.80840
C1288       C  0.14972712  0.62972981  0.31152367     1.08890
C1289       C  0.21656867  0.67490377  0.39494309     1.08780
C1290       C  0.12759091  0.67996662  0.36255167     1.08910
C1291       C  0.22443066  0.58135217  0.32377739     1.08790
O1292       O  0.16981485  0.55436570  0.38472523    -0.80800
O1293       O  0.11260859  0.64078432  0.43533163    -0.80880
O1294       O  0.08273682  0.59828499  0.34835253    -0.80810
O1295       O  0.21283116  0.60790426  0.41454038    -0.80790
O1296       O  0.17571766  0.62722571  0.44690999    -0.80840
O1297       O  0.12610191  0.57109957  0.33657925    -0.80810
O1298       O  0.21181951  0.57898018  0.39617878    -0.80770
O1299       O  0.08639684  0.64251174  0.39234129    -0.80840
Co1300     Co  0.16920297  0.58900005  0.35564993     1.51530
Co1301     Co  0.15395605  0.65473608  0.41966125     1.51690
Co1302     Co  0.11583873  0.61386270  0.36990290     1.51570
Co1303     Co  0.19603637  0.61433079  0.37050676     1.51470
O1304       O  0.15480196  0.62067837  0.38823647    -1.42730
C1305       C  0.19566420  0.55449088  0.39808615     1.08820
C1306       C  0.08849547  0.64911070  0.42082297     1.08910
C1307       C  0.09586807  0.57583522  0.33468873     1.08840
C1308       C  0.20063895  0.61229558  0.44164466     1.08820
O1309       O  0.33091471  0.55959369  0.13358265    -0.80800
O1310       O  0.42914287  0.60843692  0.16598670    -0.80820
O1311       O  0.40583857  0.64012051  0.09701967    -0.80830
O1312       O  0.37767265  0.57005131  0.22321306    -0.80770
O1313       O  0.43346481  0.66522537  0.13253245    -0.80900
O1314       O  0.38238606  0.55962673  0.17404403    -0.80810
O1315       O  0.42537117  0.60941526  0.21681623    -0.80800
O1316       O  0.35579614  0.59541020  0.10570796    -0.80840
C1317       C  0.33736097  0.57155946  0.10721631     1.08890
C1318       C  0.43902235  0.60058596  0.19221225     1.08780
C1319       C  0.42746895  0.65966315  0.10362589     1.08910
C1320       C  0.38732730  0.55288103  0.20201572     1.08790
O1321       O  0.32163184  0.57669769  0.20203444    -0.80800
O1322       O  0.38316350  0.68359068  0.16689013    -0.80880
O1323       O  0.33999193  0.64476314  0.12382963    -0.80810
O1324       O  0.38354542  0.65977486  0.23152917    -0.80790
O1325       O  0.42451545  0.66682001  0.20235358    -0.80840
O1326       O  0.31434040  0.61434675  0.15580687    -0.80810
O1327       O  0.33535407  0.61605175  0.23286809    -0.80770
O1328       O  0.36168681  0.66812356  0.12499556    -0.80840
Co1329     Co  0.34823836  0.58795524  0.16399889     1.51530
Co1330     Co  0.40500251  0.64597398  0.16435803     1.51690
Co1331     Co  0.38167610  0.62608078  0.13409703     1.51570
Co1332     Co  0.38003186  0.61480516  0.22399689     1.51470
O1333       O  0.36868490  0.62317553  0.18024862    -1.42730
C1334       C  0.31659213  0.59428599  0.22580907     1.08820
C1335       C  0.36807636  0.68990714  0.14380212     1.08910
C1336       C  0.31523610  0.63699504  0.13808513     1.08840
C1337       C  0.40814384  0.67449775  0.22590210     1.08820
O1338       O  0.42813195  0.86440999  0.32787536    -0.80800
O1339       O  0.37221425  0.82333246  0.42964975    -0.80820
O1340       O  0.34924265  0.89063083  0.39652383    -0.80830
O1341       O  0.41759760  0.77946004  0.38390831    -0.80770
O1342       O  0.32111285  0.86219161  0.42933987    -0.80900
O1343       O  0.42215773  0.83035889  0.38461655    -0.80810
O1344       O  0.36758005  0.77369706  0.42011167    -0.80800
O1345       O  0.39852654  0.90003194  0.35064299    -0.80840
C1346       C  0.42125993  0.89337562  0.33240286     1.08890
C1347       C  0.37380072  0.79560307  0.43810294     1.08780
C1348       C  0.33007857  0.88878478  0.41979306     1.08910
C1349       C  0.43133493  0.80385698  0.39292688     1.08790
O1350       O  0.42089377  0.79417090  0.32642549    -0.80800
O1351       O  0.30594941  0.84113978  0.37361626    -0.80880
O1352       O  0.35425438  0.86919008  0.32312310    -0.80810
O1353       O  0.32902242  0.76577475  0.36977159    -0.80790
O1354       O  0.31298277  0.79447505  0.40965598    -0.80840
O1355       O  0.37903597  0.82890443  0.30769389    -0.80810
O1356       O  0.37947747  0.76538697  0.33091518    -0.80770
O1357       O  0.33230473  0.87391517  0.34500711    -0.80840
Co1358     Co  0.39960188  0.83203996  0.34598777     1.51530
Co1359     Co  0.33939925  0.83304991  0.40053421     1.51690
Co1360     Co  0.37432788  0.86273274  0.36456223     1.51570
Co1361     Co  0.37300845  0.77302451  0.37536642     1.51470
O1362       O  0.36203341  0.81668653  0.36687903    -1.42730
C1363       C  0.40517001  0.77042430  0.31810540     1.08820
C1364       C  0.30689579  0.86013906  0.35209898     1.08910
C1365       C  0.36063587  0.84972223  0.30188830     1.08840
C1366       C  0.30999405  0.77079351  0.39150447     1.08820
O1367       O  0.12092989  0.65459195  0.18869820    -0.80800
O1368       O  0.16194452  0.70355658  0.07524069    -0.80820
O1369       O  0.17218996  0.62632932  0.13766221    -0.80830
O1370       O  0.11103731  0.73097904  0.16498006    -0.80770
O1371       O  0.18317127  0.66876958  0.11439295    -0.80900
O1372       O  0.07702981  0.69597334  0.18097665    -0.80810
O1373       O  0.15115489  0.73371843  0.11524577    -0.80800
O1374       O  0.15078385  0.62310088  0.16150886    -0.80840
C1375       C  0.14382187  0.63688743  0.18694310     1.08890
C1376       C  0.16701101  0.72826409  0.09137565     1.08780
C1377       C  0.19206324  0.64628099  0.12902091     1.08910
C1378       C  0.09264334  0.72086320  0.18553150     1.08790
O1379       O  0.06207069  0.66263735  0.12154281    -0.80800
O1380       O  0.16478596  0.63055804  0.06672587    -0.80880
O1381       O  0.09949841  0.60119172  0.14785079    -0.80810
O1382       O  0.10232419  0.71213933  0.07528727    -0.80790
O1383       O  0.10639002  0.66145767  0.07222447    -0.80840
O1384       O  0.06604187  0.62982440  0.17507275    -0.80810
O1385       O  0.06413247  0.71261930  0.12526382    -0.80770
O1386       O  0.14324251  0.59472542  0.09677827    -0.80840
Co1387     Co  0.09205919  0.65888742  0.15535626     1.51530
Co1388     Co  0.14497148  0.66336943  0.09475665     1.51690
Co1389     Co  0.12811075  0.63142051  0.12106876     1.51570
Co1390     Co  0.10821345  0.72037975  0.12065342     1.51470
O1391       O  0.12350253  0.67812871  0.13235440    -1.42730
C1392       C  0.05182824  0.68881122  0.11420974     1.08820
C1393       C  0.16137506  0.60149783  0.07411832     1.08910
C1394       C  0.07675372  0.60332478  0.16769367     1.08840
C1395       C  0.09609174  0.68662097  0.06183574     1.08820
O1396       O  0.18670350  0.87284088  0.33836599    -0.80800
O1397       O  0.07495829  0.82318725  0.30260767    -0.80820
O1398       O  0.14489798  0.82174433  0.37615859    -0.80830
O1399       O  0.16058020  0.87387607  0.26664825    -0.80770
O1400       O  0.11610063  0.80805393  0.33810458    -0.80900
O1401       O  0.17716874  0.91237125  0.29603876    -0.80810
O1402       O  0.11377186  0.83193946  0.27085937    -0.80800
O1403       O  0.16736326  0.84612120  0.37709307    -0.80840
C1404       C  0.19042716  0.85480996  0.36031217     1.08890
C1405       C  0.09185698  0.81483655  0.27957630     1.08780
C1406       C  0.13431741  0.80065707  0.35859512     1.08910
C1407       C  0.18044306  0.89469896  0.27214900     1.08790
O1408       O  0.11880224  0.92857148  0.33099171    -0.80800
O1409       O  0.06626863  0.82846045  0.37232616    -0.80880
O1410       O  0.14744699  0.89652350  0.39526856    -0.80810
O1411       O  0.07207113  0.88067669  0.28699110    -0.80790
O1412       O  0.07045033  0.88377242  0.33754769    -0.80840
O1413       O  0.17339688  0.92781864  0.36318146    -0.80810
O1414       O  0.11871162  0.92182751  0.28101091    -0.80770
O1415       O  0.09936629  0.84786332  0.40674899    -0.80840
Co1416     Co  0.15315422  0.89990142  0.33540156     1.51530
Co1417     Co  0.09453563  0.84594708  0.33969740     1.51690
Co1418     Co  0.12308413  0.86278610  0.36878235     1.51570
Co1419     Co  0.11687896  0.87629603  0.27835308     1.51470
O1420       O  0.13069270  0.86608038  0.32111637    -1.42730
C1421       C  0.11157639  0.93768576  0.30444987     1.08820
C1422       C  0.07476258  0.83158981  0.40092102     1.08910
C1423       C  0.16650135  0.91951000  0.39066615     1.08840
C1424       C  0.06005570  0.89142363  0.31150278     1.08820
O1425       O  0.36805438  0.94116788  0.16236468    -0.80800
O1426       O  0.32869569  0.86662392  0.05762197    -0.80820
O1427       O  0.41327334  0.85978285  0.09937162    -0.80830
O1428       O  0.27287660  0.91625704  0.12139953    -0.80770
O1429       O  0.37660318  0.82981207  0.08000216    -0.80900
O1430       O  0.31955760  0.93654507  0.11392861    -0.80810
O1431       O  0.28503447  0.88446832  0.07472883    -0.80800
O1432       O  0.39827588  0.90508376  0.14044134    -0.80840
C1433       C  0.39527320  0.92953956  0.15765956     1.08890
C1434       C  0.30620318  0.88455466  0.05510175     1.08780
C1435       C  0.40542383  0.83712192  0.08264064     1.08910
C1436       C  0.29018214  0.93802577  0.11205812     1.08790
O1437       O  0.30015538  0.91443709  0.17490251    -0.80800
O1438       O  0.33287845  0.80973815  0.12440454    -0.80880
O1439       O  0.38552863  0.85775626  0.15902390    -0.80810
O1440       O  0.24453360  0.85551121  0.11072010    -0.80790
O1441       O  0.28294085  0.82658758  0.09204016    -0.80840
O1442       O  0.35027323  0.88730902  0.18038002    -0.80810
O1443       O  0.28054295  0.86788236  0.16404436    -0.80770
O1444       O  0.37635525  0.83176197  0.14054805    -0.80840
Co1445     Co  0.33783165  0.91081412  0.14617088     1.51530
Co1446     Co  0.33010531  0.83761866  0.09130223     1.51690
Co1447     Co  0.37397323  0.87125628  0.11535946     1.51570
Co1448     Co  0.28502080  0.87214280  0.11870655     1.51470
O1449       O  0.32929465  0.87399607  0.12375893    -1.42730
C1450       C  0.28125025  0.89219960  0.18110487     1.08820
C1451       C  0.35621608  0.80998415  0.14150898     1.08910
C1452       C  0.37244426  0.86935782  0.18296711     1.08840
C1453       C  0.25374166  0.83038743  0.09785408     1.08820
O1454       O  0.86838706  0.57595165  0.32334806    -0.80800
O1455       O  0.81487048  0.61825016  0.44829347    -0.80820
O1456       O  0.90353972  0.64002780  0.39754635    -0.80830
O1457       O  0.79744746  0.57109518  0.39012161    -0.80770
O1458       O  0.87655934  0.63856305  0.43972962    -0.80900
O1459       O  0.84622924  0.56540523  0.38128213    -0.80810
O1460       O  0.77179017  0.61428224  0.41985171    -0.80800
O1461       O  0.90695564  0.59558985  0.35153599    -0.80840
C1462       C  0.89773103  0.57797625  0.32946004     1.08890
C1463       C  0.78796827  0.60727021  0.44343171     1.08780
C1464       C  0.90069429  0.64740100  0.42556709     1.08910
C1465       C  0.82204789  0.55613424  0.39384588     1.08790
O1466       O  0.79716322  0.58027501  0.33118537    -0.80800
O1467       O  0.85149558  0.68496433  0.40143933    -0.80880
O1468       O  0.87401735  0.64219497  0.33527528    -0.80810
O1469       O  0.77827538  0.65843639  0.37180518    -0.80790
O1470       O  0.79303152  0.67253043  0.41905868    -0.80840
O1471       O  0.82795513  0.62951444  0.32300170    -0.80810
O1472       O  0.75562407  0.60006627  0.35540817    -0.80770
O1473       O  0.87793611  0.65967250  0.36338841    -0.80840
Co1474     Co  0.83835027  0.59810161  0.35226147     1.51530
Co1475     Co  0.83404068  0.65224292  0.42604646     1.51690
Co1476     Co  0.87261429  0.61504773  0.37378036     1.51570
Co1477     Co  0.79034484  0.61471317  0.37798475     1.51470
O1478       O  0.83081771  0.62699441  0.38821823    -1.42730
C1479       C  0.76726205  0.58565269  0.33223700     1.08820
C1480       C  0.86529748  0.68379779  0.37558013     1.08910
C1481       C  0.85208709  0.64257977  0.31565857     1.08840
C1482       C  0.77671012  0.67671822  0.39500226     1.08820
O1483       O  0.60916816  0.83149491  0.31208602    -0.80800
O1484       O  0.67858459  0.79432993  0.41684847    -0.80820
O1485       O  0.66646870  0.87011402  0.34624538    -0.80830
O1486       O  0.60877220  0.76179138  0.34201953    -0.80770
O1487       O  0.68883450  0.83754346  0.37855006    -0.80900
O1488       O  0.59428318  0.80559121  0.31825207    -0.80810
O1489       O  0.66072685  0.76535922  0.37830784    -0.80800
O1490       O  0.64441684  0.86526481  0.32379159    -0.80840
C1491       C  0.63184862  0.84766342  0.30365291     1.08890
C1492       C  0.68090118  0.77049327  0.39878508     1.08780
C1493       C  0.69050258  0.85590590  0.35653476     1.08910
C1494       C  0.59933759  0.77576559  0.31820444     1.08790
O1495       O  0.55888366  0.81692341  0.36187636    -0.80800
O1496       O  0.67462400  0.86231970  0.43274361    -0.80880
O1497       O  0.60421217  0.90409173  0.34991918    -0.80810
O1498       O  0.62360341  0.78053900  0.42972512    -0.80790
O1499       O  0.61987975  0.83039092  0.43384624    -0.80840
O1500       O  0.56953364  0.87057083  0.33315882    -0.80810
O1501       O  0.57424284  0.78145356  0.39476740    -0.80770
O1502       O  0.65018338  0.89255465  0.39848624    -0.80840
Co1503     Co  0.59635279  0.83968444  0.35338633     1.51530
Co1504     Co  0.65449005  0.83407468  0.40539115     1.51690
Co1505     Co  0.62398087  0.86505341  0.36625187     1.51570
Co1506     Co  0.61751282  0.77460136  0.38508195     1.51470
O1507       O  0.63082941  0.81785129  0.37307499    -1.42730
C1508       C  0.55399950  0.79884898  0.38386756     1.08820
C1509       C  0.66841568  0.88939180  0.42250033     1.08910
C1510       C  0.57960155  0.89840509  0.33404836     1.08840
C1511       C  0.61247809  0.80398442  0.44304853     1.08820
O1512       O  0.68890905  0.60873541  0.15846171    -0.80800
O1513       O  0.58667054  0.67561745  0.19927061    -0.80820
O1514       O  0.64776128  0.66074432  0.12160495    -0.80830
O1515       O  0.66419344  0.61128166  0.23539354    -0.80770
O1516       O  0.63160494  0.68466176  0.16197995    -0.80900
O1517       O  0.67537303  0.57136359  0.20446001    -0.80810
O1518       O  0.62419283  0.66215532  0.23112939    -0.80800
O1519       O  0.66620022  0.63386934  0.12014638    -0.80840
C1520       C  0.69058785  0.62539951  0.13509903     1.08890
C1521       C  0.60329896  0.68119993  0.22318419     1.08780
C1522       C  0.64723661  0.68495728  0.13810677     1.08910
C1523       C  0.68019430  0.58726684  0.22946755     1.08790
O1524       O  0.61500000  0.56270940  0.17117915    -0.80800
O1525       O  0.57708143  0.67279677  0.12992698    -0.80880
O1526       O  0.64338597  0.59165467  0.10620739    -0.80810
O1527       O  0.57565378  0.62010344  0.21546655    -0.80790
O1528       O  0.57255184  0.61798529  0.16493263    -0.80840
O1529       O  0.66812929  0.55634139  0.13470942    -0.80810
O1530       O  0.61450017  0.57123030  0.22114057    -0.80770
O1531       O  0.59828602  0.64001891  0.09633359    -0.80840
Co1532     Co  0.65266061  0.58638569  0.16488453     1.51530
Co1533     Co  0.60296893  0.65104470  0.16216448     1.51690
Co1534     Co  0.62137258  0.62475633  0.13398529     1.51570
Co1535     Co  0.62049280  0.61680300  0.22361555     1.51470
O1536       O  0.63486102  0.62348250  0.18019291    -1.42730
C1537       C  0.60522736  0.55627832  0.19773993     1.08820
C1538       C  0.58033592  0.66341848  0.10159719     1.08910
C1539       C  0.66135780  0.56769313  0.10811351     1.08840
C1540       C  0.56196983  0.61124844  0.19119500     1.08820
O1541       O  0.67739638  0.86617075  0.17061631    -0.80800
O1542       O  0.70232692  0.82187912  0.07951651    -0.80820
O1543       O  0.62448748  0.82643334  0.13601579    -0.80830
O1544       O  0.73659210  0.89121688  0.14681202    -0.80770
O1545       O  0.64296958  0.80865348  0.09055342    -0.80900
O1546       O  0.70078378  0.92037895  0.17087990    -0.80810
O1547       O  0.70925732  0.83384521  0.12854122    -0.80800
O1548       O  0.63304045  0.84422076  0.16090349    -0.80840
C1549       C  0.65619013  0.84857021  0.17868450     1.08890
C1550       C  0.71492413  0.81630545  0.10556493     1.08780
C1551       C  0.63288537  0.80444600  0.11740974     1.08910
C1552       C  0.72865690  0.90864108  0.16992007     1.08790
O1553       O  0.65872685  0.93477054  0.11684876    -0.80800
O1554       O  0.61847165  0.85595137  0.05698786    -0.80880
O1555       O  0.58819000  0.88324221  0.15294984    -0.80810
O1556       O  0.72359145  0.87720213  0.07901529    -0.80790
O1557       O  0.68135797  0.87641745  0.04917854    -0.80840
O1558       O  0.62828462  0.91318861  0.16641582    -0.80810
O1559       O  0.70443750  0.92199232  0.10569858    -0.80770
O1560       O  0.59315278  0.84960073  0.10067955    -0.80840
Co1561     Co  0.66897109  0.89966170  0.14258704     1.51530
Co1562     Co  0.66124577  0.84262077  0.07003602     1.51690
Co1563     Co  0.62179203  0.87295603  0.12708945     1.51570
Co1564     Co  0.70252737  0.87854403  0.12019618     1.51470
O1565       O  0.65973399  0.87060698  0.10656028    -1.42730
C1566       C  0.68263309  0.94043983  0.10246134     1.08820
C1567       C  0.59518122  0.84552775  0.07194731     1.08910
C1568       C  0.59894473  0.90621129  0.16782732     1.08840
C1569       C  0.70864009  0.88572979  0.05498245     1.08820
O1570       O  0.93698354  0.63191102  0.17094835    -0.80800
O1571       O  0.87676273  0.66640946  0.07792674    -0.80820
O1572       O  0.85216436  0.59683639  0.09931424    -0.80830
O1573       O  0.92429900  0.71747290  0.12303230    -0.80770
O1574       O  0.82150935  0.63312120  0.07909030    -0.80900
O1575       O  0.92891021  0.66730478  0.11943374    -0.80810
O1576       O  0.87582091  0.71675137  0.08370380    -0.80800
O1577       O  0.90321182  0.60153961  0.14614929    -0.80840
C1578       C  0.92745055  0.60479789  0.16387787     1.08890
C1579       C  0.88407560  0.69297080  0.06875664     1.08780
C1580       C  0.82968911  0.60434606  0.08087618     1.08910
C1581       C  0.93673230  0.69386888  0.11099829     1.08790
O1582       O  0.92299046  0.69820032  0.18179328    -0.80800
O1583       O  0.80983784  0.66133007  0.13504779    -0.80880
O1584       O  0.85673467  0.61711728  0.16965798    -0.80810
O1585       O  0.83468963  0.73042755  0.13323734    -0.80790
O1586       O  0.81940503  0.70157867  0.09404629    -0.80840
O1587       O  0.88413897  0.65306533  0.19372916    -0.80810
O1588       O  0.88414967  0.73071557  0.17337252    -0.80770
O1589       O  0.83105698  0.61883892  0.14996195    -0.80840
Co1590     Co  0.90626937  0.66062366  0.15726203     1.51530
Co1591     Co  0.84335022  0.66273601  0.10734021     1.51690
Co1592     Co  0.86950027  0.63151856  0.12623228     1.51570
Co1593     Co  0.87912156  0.72176463  0.12903573     1.51470
O1594       O  0.87005482  0.67783944  0.14076619    -1.42730
C1595       C  0.90672333  0.72192809  0.18984060     1.08820
C1596       C  0.80745787  0.63643002  0.14871446     1.08910
C1597       C  0.86545874  0.63108450  0.19452977     1.08840
C1598       C  0.81504032  0.72474899  0.11226847     1.08820
O1599       O  0.88549353  0.81434834  0.33542715    -0.80800
O1600       O  0.81919096  0.91759538  0.29742892    -0.80820
O1601       O  0.83564007  0.84902837  0.37619036    -0.80830
O1602       O  0.88510391  0.83638302  0.27107293    -0.80770
O1603       O  0.81207470  0.87933411  0.34251077    -0.80900
O1604       O  0.92597543  0.83110192  0.30079593    -0.80810
O1605       O  0.83566172  0.87748679  0.26958704    -0.80800
O1606       O  0.85854714  0.82677816  0.37499059    -0.80840
C1607       C  0.86933507  0.80622906  0.35698727     1.08890
C1608       C  0.81633129  0.89931742  0.27374118     1.08780
C1609       C  0.81134386  0.85775354  0.36148603     1.08910
C1610       C  0.90905089  0.82124454  0.27841888     1.08790
O1611       O  0.92846089  0.89087520  0.33605854    -0.80800
O1612       O  0.82593358  0.93376934  0.36831279    -0.80880
O1613       O  0.90047453  0.85411414  0.40589427    -0.80810
O1614       O  0.87546724  0.92636429  0.27904274    -0.80790
O1615       O  0.87819845  0.93722891  0.32841329    -0.80840
O1616       O  0.93316970  0.83412735  0.37145661    -0.80810
O1617       O  0.92492288  0.88840161  0.28527042    -0.80770
O1618       O  0.85212007  0.89892188  0.39632308    -0.80840
Co1619     Co  0.90550682  0.85260667  0.33818231     1.51530
Co1620     Co  0.84504198  0.90723296  0.33667150     1.51690
Co1621     Co  0.87800895  0.86867685  0.36812575     1.51570
Co1622     Co  0.87987211  0.88133910  0.27812789     1.51470
O1623       O  0.86808608  0.87306112  0.32151780    -1.42730
C1624       C  0.93829880  0.89818564  0.30961629     1.08820
C1625       C  0.83323842  0.92233500  0.39482640     1.08910
C1626       C  0.92398956  0.83668857  0.39997258     1.08840
C1627       C  0.88432989  0.94365817  0.30062597     1.08820
O1628       O  0.11791769  0.43675980  0.35531456    -0.80800
O1629       O  0.16010159  0.37503748  0.43818670    -0.80820
O1630       O  0.08714708  0.34473274  0.39412143    -0.80830
O1631       O  0.22358501  0.41627232  0.38042889    -0.80770
O1632       O  0.12887537  0.32476114  0.41706492    -0.80900
O1633       O  0.18082906  0.44551148  0.37632975    -0.80810
O1634       O  0.20495310  0.38933630  0.42476441    -0.80800
O1635       O  0.09116858  0.39354099  0.35663371    -0.80840
C1636       C  0.09337583  0.42143126  0.34869213     1.08890
C1637       C  0.18329144  0.39093152  0.44346869     1.08780
C1638       C  0.09872815  0.32633022  0.41366099     1.08910
C1639       C  0.20779502  0.44060787  0.38710531     1.08790
O1640       O  0.20288280  0.41242279  0.32428440    -0.80800
O1641       O  0.17644015  0.32442282  0.36678949    -0.80880
O1642       O  0.11655823  0.35862275  0.33439616    -0.80810
O1643       O  0.23907124  0.34815252  0.39447922    -0.80790
O1644       O  0.20257571  0.32261541  0.42096233    -0.80840
O1645       O  0.14363777  0.39719457  0.31221983    -0.80810
O1646       O  0.21211377  0.36434497  0.33750494    -0.80770
O1647       O  0.12914988  0.33310054  0.35155648    -0.80840
Co1648     Co  0.16128417  0.42166730  0.34394171     1.51530
Co1649     Co  0.16881457  0.35010871  0.40199990     1.51690
Co1650     Co  0.12117940  0.36851980  0.38037274     1.51570
Co1651     Co  0.20399112  0.37399904  0.38182550     1.51470
O1652       O  0.16042236  0.38701974  0.37398632    -1.42730
C1653       C  0.21708926  0.38698236  0.31968486     1.08820
C1654       C  0.15356075  0.31640295  0.35137678     1.08910
C1655       C  0.12629645  0.37388472  0.31072620     1.08840
C1656       C  0.23107589  0.32472529  0.41113049     1.08820
O1657       O  0.41804587  0.32830678  0.13081961    -0.80800
O1658       O  0.35509712  0.43940064  0.18586652    -0.80820
O1659       O  0.35530797  0.39319947  0.09107096    -0.80830
O1660       O  0.41142502  0.39019082  0.21459467    -0.80770
O1661       O  0.34615774  0.43274320  0.12179052    -0.80900
O1662       O  0.43399088  0.37633415  0.17215923    -0.80810
O1663       O  0.38359421  0.40793364  0.21716228    -0.80800
O1664       O  0.40061845  0.35059368  0.08730813    -0.80840
C1665       C  0.41794444  0.33107072  0.10041432     1.08890
C1666       C  0.37563089  0.43460613  0.20638796     1.08780
C1667       C  0.34421291  0.41993658  0.09534255     1.08910
C1668       C  0.43504977  0.39114669  0.19702023     1.08790
O1669       O  0.41927766  0.31820411  0.20125514    -0.80800
O1670       O  0.30613631  0.38344541  0.13525238    -0.80880
O1671       O  0.35929905  0.32671637  0.12480268    -0.80810
O1672       O  0.34015159  0.37621386  0.23010767    -0.80790
O1673       O  0.30745684  0.39581277  0.19681334    -0.80840
O1674       O  0.36450098  0.32182509  0.17464773    -0.80810
O1675       O  0.38816114  0.33911203  0.23602084    -0.80770
O1676       O  0.33977217  0.35071370  0.11192282    -0.80840
Co1677     Co  0.39857804  0.34912502  0.17253991     1.51530
Co1678     Co  0.33100445  0.41145605  0.16007086     1.51690
Co1679     Co  0.38100437  0.36910089  0.12085376     1.51570
Co1680     Co  0.37428332  0.36482934  0.20141374     1.51470
O1681       O  0.36806466  0.38334274  0.15997884    -1.42730
C1682       C  0.40760926  0.31789087  0.22885724     1.08820
C1683       C  0.31259622  0.35919413  0.12009045     1.08910
C1684       C  0.35568247  0.31104302  0.14968199     1.08840
C1685       C  0.31341466  0.38591869  0.22364273     1.08820
O1686       O  0.36234711  0.15898061  0.31810534    -0.80800
O1687       O  0.31636337  0.19403732  0.41628940    -0.80820
O1688       O  0.31791816  0.11304362  0.36099042    -0.80830
O1689       O  0.38409439  0.21573230  0.33783880    -0.80770
O1690       O  0.32355300  0.16298186  0.36158398    -0.80900
O1691       O  0.41665480  0.18813629  0.30940722    -0.80810
O1692       O  0.34060709  0.22590926  0.38462717    -0.80800
O1693       O  0.36209481  0.10909147  0.31497806    -0.80840
C1694       C  0.35890627  0.13509745  0.30259151     1.08890
C1695       C  0.31874763  0.22131570  0.40426588     1.08780
C1696       C  0.30675511  0.13995421  0.35886682     1.08910
C1697       C  0.40302018  0.21369160  0.31459538     1.08790
O1698       O  0.43718339  0.16795805  0.36502290    -0.80800
O1699       O  0.32690198  0.12471195  0.41791081    -0.80880
O1700       O  0.40582255  0.08612056  0.35608706    -0.80810
O1701       O  0.38887118  0.20368839  0.41282566    -0.80790
O1702       O  0.37116515  0.16391154  0.43704044    -0.80840
O1703       O  0.42097903  0.12330909  0.32409221    -0.80810
O1704       O  0.40940356  0.20464526  0.38770789    -0.80770
O1705       O  0.36103510  0.08912023  0.40392683    -0.80840
Co1706     Co  0.40060175  0.16197627  0.34137152     1.51530
Co1707     Co  0.34733627  0.16319083  0.39928823     1.51690
Co1708     Co  0.36280898  0.10175993  0.36015200     1.51570
Co1709     Co  0.36635915  0.18898004  0.37423266     1.51470
O1710       O  0.38107662  0.14339670  0.37539699    -1.42730
C1711       C  0.43541984  0.19060798  0.38317765     1.08820
C1712       C  0.33747957  0.09696509  0.41945752     1.08910
C1713       C  0.42270627  0.09540166  0.33394584     1.08840
C1714       C  0.38771743  0.18751365  0.43736860     1.08820
O1715       O  0.17771219  0.06890628  0.36455050    -0.80800
O1716       O  0.07547148  0.11585748  0.33005915    -0.80820
O1717       O  0.09534440  0.14052128  0.40298512    -0.80830
O1718       O  0.12702472  0.07615805  0.27975044    -0.80770
O1719       O  0.07084294  0.16907538  0.36767210    -0.80900
O1720       O  0.12523142  0.06972081  0.32976694    -0.80810
O1721       O  0.08142781  0.11921024  0.27986126    -0.80800
O1722       O  0.14759214  0.09789121  0.39507665    -0.80840
C1723       C  0.16847390  0.07621696  0.39152607     1.08890
C1724       C  0.06502685  0.11325270  0.30312962     1.08780
C1725       C  0.07437071  0.16066777  0.39625015     1.08910
C1726       C  0.11810798  0.06114140  0.30292037     1.08790
O1727       O  0.18489764  0.08491821  0.30006842    -0.80800
O1728       O  0.12280064  0.18954596  0.33715476    -0.80880
O1729       O  0.16239790  0.14940838  0.38174426    -0.80810
O1730       O  0.12600745  0.16596830  0.26879609    -0.80790
O1731       O  0.08521232  0.17655268  0.29718123    -0.80840
O1732       O  0.19184981  0.12601469  0.34675487    -0.80810
O1733       O  0.17099990  0.12330777  0.26954575    -0.80770
O1734       O  0.13949732  0.17271161  0.38046680    -0.80840
Co1735     Co  0.15916425  0.09805228  0.33769223     1.51530
Co1736     Co  0.10044298  0.15258633  0.33565418     1.51690
Co1737     Co  0.12245609  0.12991697  0.36693090     1.51570
Co1738     Co  0.12695499  0.12160132  0.27674130     1.51470
O1739       O  0.13725437  0.13131317  0.32089018    -1.42730
C1740       C  0.18883213  0.10118627  0.27567704     1.08820
C1741       C  0.13489102  0.19529164  0.36214491     1.08910
C1742       C  0.18848024  0.14536928  0.36823679     1.08840
C1743       C  0.10244841  0.18242610  0.27374532     1.08820
O1744       O  0.36665576  0.10733298  0.18863105    -0.80800
O1745       O  0.29988119  0.17014250  0.07201382    -0.80820
O1746       O  0.37531163  0.16870112  0.13743151    -0.80830
O1747       O  0.27658915  0.11799931  0.15718994    -0.80770
O1748       O  0.32616293  0.17198905  0.12607209    -0.80900
O1749       O  0.30799338  0.08919957  0.18495619    -0.80810
O1750       O  0.26624628  0.15098797  0.10535215    -0.80800
O1751       O  0.38473271  0.14586031  0.15860446    -0.80840
C1752       C  0.37600514  0.13484006  0.18449999     1.08890
C1753       C  0.27222136  0.17070114  0.08411891     1.08780
C1754       C  0.34994611  0.18420183  0.13602515     1.08910
C1755       C  0.28268081  0.10298347  0.18148071     1.08790
O1756       O  0.32070448  0.05046102  0.13564656    -0.80800
O1757       O  0.37330467  0.16190493  0.07683514    -0.80880
O1758       O  0.41237936  0.10342078  0.14487286    -0.80810
O1759       O  0.29021909  0.09899134  0.08432194    -0.80790
O1760       O  0.33302169  0.11144514  0.06178835    -0.80840
O1761       O  0.38542524  0.06089084  0.14563679    -0.80810
O1762       O  0.28511181  0.08332051  0.11459834    -0.80770
O1763       O  0.41646579  0.14451504  0.10044269    -0.80840
Co1764     Co  0.34530132  0.07836220  0.16132413     1.51530
Co1765     Co  0.33061471  0.14157904  0.09472032     1.51690
Co1766     Co  0.38254477  0.12561436  0.11751515     1.51570
Co1767     Co  0.30199915  0.12698268  0.12006423     1.51470
O1768       O  0.34357953  0.10981780  0.12757571    -1.42730
C1769       C  0.29542090  0.05604639  0.12146947     1.08820
C1770       C  0.40381908  0.16096083  0.08004420     1.08910
C1771       C  0.41015140  0.07531947  0.15220333     1.08840
C1772       C  0.30872016  0.09577133  0.06162792     1.08820
O1773       O  0.08715409  0.37284024  0.17393882    -0.80800
O1774       O  0.12273480  0.32813296  0.05646532    -0.80820
O1775       O  0.14193812  0.40267474  0.08644354    -0.80830
O1776       O  0.08745700  0.28914261  0.11084457    -0.80770
O1777       O  0.17215796  0.36444208  0.07091848    -0.80900
O1778       O  0.06417897  0.32778905  0.13548584    -0.80810
O1779       O  0.10491902  0.28995958  0.08326528    -0.80800
O1780       O  0.10143101  0.40897179  0.14000343    -0.80840
C1781       C  0.08568620  0.40067598  0.16370556     1.08890
C1782       C  0.10380555  0.30646276  0.05890037     1.08780
C1783       C  0.16441330  0.39321798  0.07008909     1.08910
C1784       C  0.06272106  0.30445745  0.11808650     1.08790
O1785       O  0.08911664  0.30818238  0.18898026    -0.80800
O1786       O  0.17718840  0.32513881  0.12683426    -0.80880
O1787       O  0.14871247  0.38301110  0.17413143    -0.80810
O1788       O  0.15614355  0.26472904  0.10692904    -0.80790
O1789       O  0.17831684  0.29483003  0.07223435    -0.80840
O1790       O  0.14363000  0.33359623  0.17449737    -0.80810
O1791       O  0.11738212  0.27845891  0.15803990    -0.80770
O1792       O  0.18631521  0.37460081  0.12579203    -0.80840
Co1793     Co  0.10328298  0.33252749  0.15510979     1.51530
Co1794     Co  0.15034311  0.32726790  0.09149393     1.51690
Co1795     Co  0.14303553  0.38991769  0.13037365     1.51570
Co1796     Co  0.13258542  0.30303423  0.11892325     1.51470
O1797       O  0.12033601  0.34935012  0.11847883    -1.42730
C1798       C  0.10111235  0.28199705  0.18311611     1.08820
C1799       C  0.19539732  0.34695836  0.12848692     1.08910
C1800       C  0.14846208  0.35800496  0.18859349     1.08840
C1801       C  0.17689979  0.26820897  0.08578423     1.08820
O1802       O  0.60781932  0.30932703  0.13890468    -0.80800
O1803       O  0.66240684  0.42939096  0.20605986    -0.80820
O1804       O  0.67124842  0.36114644  0.13306197    -0.80830
O1805       O  0.60956793  0.34343396  0.22959289    -0.80770
O1806       O  0.67155903  0.37619251  0.18117898    -0.80900
O1807       O  0.58511867  0.31348702  0.19645678    -0.80810
O1808       O  0.64296347  0.39488682  0.23893973    -0.80800
O1809       O  0.64887621  0.33865784  0.12583739    -0.80840
C1810       C  0.63658071  0.31355167  0.13512224     1.08890
C1811       C  0.66130649  0.41741076  0.23364001     1.08780
C1812       C  0.68590639  0.36669725  0.15832892     1.08910
C1813       C  0.59564649  0.31845423  0.22317711     1.08790
O1814       O  0.54811695  0.36331556  0.17886001    -0.80800
O1815       O  0.66123267  0.42317800  0.13198027    -0.80880
O1816       O  0.60769423  0.35029839  0.09194165    -0.80810
O1817       O  0.59520519  0.41615313  0.21186870    -0.80790
O1818       O  0.60739859  0.43651142  0.16798997    -0.80840
O1819       O  0.56379053  0.35268837  0.11662518    -0.80810
O1820       O  0.57789620  0.38676867  0.21546764    -0.80770
O1821       O  0.65103081  0.39490860  0.08935842    -0.80840
Co1822     Co  0.57753267  0.33680522  0.15766641     1.51530
Co1823     Co  0.63867037  0.40515147  0.17333652     1.51690
Co1824     Co  0.62828713  0.37898749  0.12221001     1.51570
Co1825     Co  0.62237949  0.37859600  0.20276932     1.51470
O1826       O  0.60902353  0.37043172  0.16031612    -1.42730
C1827       C  0.55172432  0.38064091  0.20244821     1.08820
C1828       C  0.66464269  0.41756204  0.10205374     1.08910
C1829       C  0.57903226  0.34469886  0.09287914     1.08840
C1830       C  0.59248422  0.43835777  0.19267656     1.08820
O1831       O  0.55996381  0.13147978  0.33097721    -0.80800
O1832       O  0.61930493  0.16313973  0.42787511    -0.80820
O1833       O  0.64331078  0.09424624  0.40398628    -0.80830
O1834       O  0.57202214  0.21893529  0.38268866    -0.80770
O1835       O  0.67529311  0.12902876  0.42472418    -0.80900
O1836       O  0.56359137  0.16895651  0.38377597    -0.80810
O1837       O  0.61889175  0.21403374  0.42364723    -0.80800
O1838       O  0.59401605  0.10170147  0.35622887    -0.80840
C1839       C  0.57042868  0.10445651  0.33749407     1.08890
C1840       C  0.61405796  0.18961422  0.43883482     1.08780
C1841       C  0.66645672  0.10036955  0.42210631     1.08910
C1842       C  0.55582056  0.19624209  0.39077924     1.08790
O1843       O  0.57502732  0.19952122  0.32284599    -0.80800
O1844       O  0.68671921  0.16248574  0.37038091    -0.80880
O1845       O  0.63995178  0.11792644  0.33616094    -0.80810
O1846       O  0.66168279  0.22806526  0.37543537    -0.80790
O1847       O  0.67667916  0.19931096  0.41428958    -0.80840
O1848       O  0.61319773  0.15413375  0.31188963    -0.80810
O1849       O  0.61413402  0.23062072  0.33507455    -0.80770
O1850       O  0.66572107  0.11995251  0.35575897    -0.80840
Co1851     Co  0.58917761  0.16106005  0.34734379     1.51530
Co1852     Co  0.65299383  0.16099655  0.39838015     1.51690
Co1853     Co  0.62656555  0.13073391  0.37959639     1.51570
Co1854     Co  0.61722321  0.22071641  0.37871582     1.51470
O1855       O  0.62505627  0.17706592  0.36610245    -1.42730
C1856       C  0.59147332  0.22392135  0.31789809     1.08820
C1857       C  0.68889889  0.13816133  0.35571446     1.08910
C1858       C  0.63295187  0.13317255  0.31167540     1.08840
C1859       C  0.68057829  0.22308481  0.39702728     1.08820
O1860       O  0.82974588  0.36494781  0.30145969    -0.80800
O1861       O  0.79902308  0.32174257  0.40769567    -0.80820
O1862       O  0.88029909  0.32458658  0.34773314    -0.80830
O1863       O  0.74388111  0.38850922  0.35324327    -0.80770
O1864       O  0.84263166  0.30806464  0.37528106    -0.80900
O1865       O  0.78103893  0.40340994  0.32082014    -0.80810
O1866       O  0.77589372  0.33235879  0.36311691    -0.80800
O1867       O  0.87361687  0.34814296  0.32556286    -0.80840
C1868       C  0.85324421  0.34754899  0.30301368     1.08890
C1869       C  0.77793040  0.31586931  0.38755539     1.08780
C1870       C  0.86309880  0.30243082  0.35623190     1.08910
C1871       C  0.75195678  0.40067804  0.32752030     1.08790
O1872       O  0.83088041  0.43644686  0.35234561    -0.80800
O1873       O  0.86984675  0.32837040  0.42805937    -0.80880
O1874       O  0.90100268  0.39560556  0.35649808    -0.80810
O1875       O  0.77740913  0.37676072  0.41096991    -0.80790
O1876       O  0.82666534  0.38102784  0.42484401    -0.80840
O1877       O  0.87417894  0.40879145  0.31576544    -0.80810
O1878       O  0.78991980  0.42140975  0.37766917    -0.80770
O1879       O  0.90597312  0.34544014  0.39521558    -0.80840
Co1880     Co  0.82889824  0.40139525  0.32518607     1.51530
Co1881     Co  0.83816751  0.34619294  0.39817184     1.51690
Co1882     Co  0.87104298  0.36354347  0.37170515     1.51570
Co1883     Co  0.78452105  0.37749408  0.36624229     1.51470
O1884       O  0.82792023  0.37157684  0.36115584    -1.42730
C1885       C  0.81235425  0.43937230  0.37434290     1.08820
C1886       C  0.89879884  0.33073207  0.42000699     1.08910
C1887       C  0.89912904  0.40962005  0.33100118     1.08840
C1888       C  0.79794347  0.38467103  0.43032969     1.08820
O1889       O  0.63481644  0.06354932  0.17241366    -0.80800
O1890       O  0.66952184  0.11356962  0.07317406    -0.80820
O1891       O  0.59982735  0.14719321  0.10022859    -0.80830
O1892       O  0.71896371  0.06741522  0.11898839    -0.80770
O1893       O  0.63642290  0.17062784  0.07327975    -0.80900
O1894       O  0.66858327  0.06518714  0.11854426    -0.80810
O1895       O  0.72031884  0.11308844  0.07698533    -0.80800
O1896       O  0.60733175  0.09949712  0.14740503    -0.80840
C1897       C  0.60854809  0.07512463  0.16509723     1.08890
C1898       C  0.69584417  0.10920988  0.06166521     1.08780
C1899       C  0.60713970  0.16622488  0.07841446     1.08910
C1900       C  0.69423778  0.05642096  0.10815285     1.08790
O1901       O  0.70351722  0.07324047  0.17856500    -0.80800
O1902       O  0.67301798  0.18355092  0.12610315    -0.80880
O1903       O  0.62760736  0.14667543  0.16765336    -0.80810
O1904       O  0.73808462  0.15598276  0.12313020    -0.80790
O1905       O  0.70762663  0.17060596  0.08493021    -0.80840
O1906       O  0.66319677  0.11687151  0.18949454    -0.80810
O1907       O  0.73659084  0.11000758  0.16570789    -0.80770
O1908       O  0.62939620  0.17241938  0.14569433    -0.80840
Co1909     Co  0.66568306  0.09091519  0.15499938     1.51530
Co1910     Co  0.66836405  0.14875663  0.10072743     1.51690
Co1911     Co  0.63693908  0.13079426  0.12399771     1.51570
Co1912     Co  0.72651471  0.11222411  0.12194146     1.51470
O1913       O  0.68384845  0.12447700  0.13514491    -1.42730
C1914       C  0.72902737  0.08803166  0.18322989     1.08820
C1915       C  0.64984658  0.19245653  0.13937690     1.08910
C1916       C  0.64279611  0.13721056  0.19138570     1.08840
C1917       C  0.73114564  0.17539897  0.10249438     1.08820
O1918       O  0.91101736  0.16523655  0.37627113    -0.80800
O1919       O  0.87920352  0.04937594  0.32495904    -0.80820
O1920       O  0.85246756  0.09950036  0.41426038    -0.80830
O1921       O  0.91461511  0.10923032  0.28937775    -0.80770
O1922       O  0.86069424  0.05688904  0.38809813    -0.80900
O1923       O  0.93201119  0.12189419  0.33431105    -0.80810
O1924       O  0.89005573  0.08488695  0.28762826    -0.80800
O1925       O  0.88835220  0.14775118  0.41945956    -0.80840
C1926       C  0.90880160  0.16425524  0.40666253     1.08890
C1927       C  0.89216145  0.05753080  0.29994224     1.08780
C1928       C  0.84958667  0.07077418  0.41177961     1.08910
C1929       C  0.93742300  0.11211313  0.30767711     1.08790
O1930       O  0.91269411  0.17866123  0.30610339    -0.80800
O1931       O  0.81094656  0.08832071  0.36447327    -0.80880
O1932       O  0.84531369  0.16198185  0.38003325    -0.80810
O1933       O  0.83915334  0.11199017  0.27799149    -0.80790
O1934       O  0.82177545  0.07256158  0.30529369    -0.80840
O1935       O  0.85691089  0.16976085  0.33154444    -0.80810
O1936       O  0.88402864  0.15581020  0.27026886    -0.80770
O1937       O  0.82781496  0.13295894  0.38626309    -0.80840
Co1938     Co  0.89420535  0.14517438  0.33357659     1.51530
Co1939     Co  0.84503124  0.06845345  0.34564018     1.51690
Co1940     Co  0.87437704  0.12561496  0.38482785     1.51570
Co1941     Co  0.87360942  0.12679878  0.30417667     1.51470
O1942       O  0.86849579  0.10792460  0.34555794    -1.42730
C1943       C  0.90164569  0.17849374  0.27822327     1.08820
C1944       C  0.80631053  0.11452377  0.37655036     1.08910
C1945       C  0.84547641  0.17929866  0.35617954     1.08840
C1946       C  0.82050540  0.08978918  0.28162914     1.08820
O1947       O  0.86244571  0.32741295  0.17309668    -0.80800
O1948       O  0.81924350  0.29829024  0.08519235    -0.80820
O1949       O  0.83414870  0.38441206  0.14079190    -0.80830
O1950       O  0.89132534  0.26570897  0.15826139    -0.80770
O1951       O  0.80845521  0.35775978  0.10357846    -0.80900
O1952       O  0.91794565  0.30215075  0.18217432    -0.80810
O1953       O  0.84312149  0.27265982  0.12191374    -0.80800
O1954       O  0.85493020  0.37713547  0.16784933    -0.80840
C1955       C  0.85347420  0.35241676  0.18396287     1.08890
C1956       C  0.82146959  0.27503237  0.10254922     1.08780
C1957       C  0.80961638  0.37205982  0.12918925     1.08910
C1958       C  0.90726752  0.27407347  0.18179396     1.08790
O1959       O  0.93636652  0.33016555  0.12443001    -0.80800
O1960       O  0.85266379  0.38040355  0.06131440    -0.80880
O1961       O  0.89526508  0.41581858  0.14714676    -0.80810
O1962       O  0.89061964  0.28291220  0.08815261    -0.80790
O1963       O  0.87119240  0.31758428  0.05330957    -0.80840
O1964       O  0.91643438  0.37249491  0.16683528    -0.80810
O1965       O  0.91803742  0.28668568  0.10864683    -0.80770
O1966       O  0.85340706  0.41021216  0.10230935    -0.80840
Co1967     Co  0.89885754  0.32922711  0.14834463     1.51530
Co1968     Co  0.83999315  0.33880536  0.07761250     1.51690
Co1969     Co  0.87879430  0.38121640  0.12715308     1.51570
Co1970     Co  0.87887220  0.29988498  0.13091919     1.51470
O1971       O  0.87137464  0.34088552  0.11164175    -1.42730
C1972       C  0.94047395  0.30565410  0.10970939     1.08820
C1973       C  0.84559406  0.40578516  0.07462871     1.08910
C1974       C  0.91503919  0.40296565  0.16453346     1.08840
C1975       C  0.88765361  0.29413616  0.06051819     1.08820
C1976       C  0.68306576  0.07291591  0.56361254     0.41800
N1977       N  0.71771204  0.05226552  0.53379673     0.00690
C1978       C  0.71684813  0.91231003  0.44907158    -0.07190
H1979       H  0.72230065  0.88822612  0.54254903     0.06180
C1980       C  0.82899262  0.95564957  0.56326191    -0.07540
Co1981     Co  0.69630556  0.99385426  0.49960118     0.74180
N1982       N  0.71898129  0.93584225  0.53133649    -0.26720
Co1983     Co  0.75623515  0.93799155  0.50057788     0.74070
C1984       C  0.81762012  0.92758111  0.57792173     0.41900
N1985       N  0.80935616  0.03018123  0.54038503     0.00300
N1986       N  0.78965651  0.93810825  0.53743036     0.00410
N1987       N  0.67563934  0.94404635  0.44814947    -0.47570
H1988       H  0.64999810  0.03178296  0.55485994     0.06160
N1989       N  0.69607347  0.95627178  0.53277692     0.00690
N1990       N  0.79227129  0.94034912  0.46680910     0.00430
C1991       C  0.81998573  0.93519276  0.42479547     0.42040
N1992       N  0.78761267  0.05154475  0.53816914    -0.26180
C1993       C  0.67412823  0.04329180  0.44855268    -0.07100
N1994       N  0.71106234  0.07698309  0.55080861    -0.47280
N1995       N  0.79531031  0.92390209  0.44072624    -0.47510
C1996       C  0.68388675  0.07478533  0.43908581     0.41810
N1997       N  0.69844679  0.95638932  0.46535823     0.00680
N1998       N  0.79160177  0.05026985  0.47009769    -0.26200
N1999       N  0.69538426  0.03119211  0.53356283    -0.26690
N2000       N  0.81319936  0.02875607  0.47215596     0.00320
H2001       H  0.78780555  0.09011874  0.44052304     0.06210
H2002       H  0.85184038  0.97484998  0.43974045     0.06240
N2003       N  0.72246832  0.93729678  0.46641744    -0.26740
N2004       N  0.81043945  0.96034682  0.53877484    -0.26350
N2005       N  0.71934242  0.05293957  0.46777110     0.00680
C2006       C  0.67936421  0.91532169  0.55724567     0.42080
C2007       C  0.79206377  0.07267563  0.56067917    -0.07600
N2008       N  0.81375185  0.96176751  0.46946278    -0.26350
H2009       H  0.84837200  0.96998604  0.56980817     0.06230
N2010       N  0.67184934  0.94474027  0.54831252    -0.47570
H2011       H  0.77849577  0.09344703  0.56342306     0.06220
C2012       C  0.82853333  0.05598730  0.43406650     0.41920
C2013       C  0.67252566  0.04217587  0.55225841    -0.07100
Co2014     Co  0.75429014  0.05165647  0.50220493     0.73820
N2015       N  0.82876216  0.03582255  0.56380007    -0.47290
C2016       C  0.68605722  0.91627890  0.43658083     0.42180
N2017       N  0.71191228  0.07860539  0.45247915    -0.47280
Co2018     Co  0.81200111  0.99512070  0.50555846     0.73890
C2019       C  0.83249628  0.95988218  0.44447103    -0.07610
C2020       C  0.71020219  0.90977635  0.54521434    -0.07170
N2021       N  0.69714631  0.03170945  0.46663480    -0.26700
N2022       N  0.79327397  0.91782185  0.56039486    -0.47460
H2023       H  0.73095144  0.89164523  0.44883429     0.06190
C2024       C  0.79989348  0.06926255  0.44704947    -0.07580
Cl2025     Cl  0.75432026  0.99469793  0.50206748    -0.50590
C2026       C  0.81910409  0.06218572  0.57827473     0.41950
H2027       H  0.65159887  0.03291303  0.44577920     0.06160
N2028       N  0.83553074  0.03141230  0.45138912    -0.47300
C2029       C  0.90789188  0.25225160  0.20909642    -0.06130
C2030       C  0.93477455  0.24326495  0.22533235    -0.33560
C2031       C  0.93362025  0.21995817  0.24863102     0.35690
C2032       C  0.90539045  0.20506397  0.25588722    -0.06480
C2033       C  0.87877070  0.21510679  0.24036150    -0.33450
C2034       C  0.87973039  0.23824394  0.21780892     0.35600
H2035       H  0.95676193  0.25343126  0.21928244     0.15970
O2036       O  0.96042803  0.21066842  0.26262631    -0.60950
H2037       H  0.85665173  0.20476739  0.24573727     0.15980
O2038       O  0.85255396  0.24677291  0.20392800    -0.61050
H2039       H  0.84498895  0.26473801  0.21604996     0.42980
H2040       H  0.96213089  0.22366969  0.28144792     0.42940
C2041       C  0.79694889  0.08378151  0.25681190    -0.06130
C2042       C  0.80553548  0.08797317  0.22598188    -0.33560
C2043       C  0.78388906  0.08605467  0.20202475     0.35690
C2044       C  0.75213090  0.08087572  0.20819846    -0.06480
C2045       C  0.74359579  0.07479695  0.23891759    -0.33450
C2046       C  0.76578866  0.07594865  0.26304536     0.35600
H2047       H  0.82929902  0.09334903  0.22035701     0.15970
O2048       O  0.79397758  0.09090766  0.17243400    -0.60950
H2049       H  0.71953357  0.07102483  0.24451516     0.15980
O2050       O  0.75630776  0.07136002  0.29279650    -0.61050
H2051       H  0.75368168  0.09243299  0.30144004     0.42980
H2052       H  0.79693966  0.06996179  0.16351492     0.42940
C2053       C  0.79703254  0.25064676  0.10125112    -0.06130
C2054       C  0.78542526  0.23888945  0.12897527    -0.33560
C2055       C  0.76216901  0.21645928  0.12913291     0.35690
C2056       C  0.75068606  0.20385696  0.10119431    -0.06480
C2057       C  0.76147720  0.21621245  0.07325968    -0.33450
C2058       C  0.78424469  0.23968013  0.07317713     0.35600
H2059       H  0.79415247  0.24750822  0.15082011     0.15970
O2060       O  0.75109051  0.20655621  0.15704318    -0.60950
H2061       H  0.75324921  0.20684735  0.05154450     0.15980
O2062       O  0.79524303  0.25028410  0.04553237    -0.61050
H2063       H  0.78061892  0.26675306  0.03925089     0.42980
H2064       H  0.73177083  0.21844948  0.16041708     0.42940
C2065       C  0.85956521  0.33072188  0.27523694    -0.06130
C2066       C  0.88311044  0.34593144  0.25995000    -0.33560
C2067       C  0.87559261  0.36132478  0.23318749     0.35690
C2068       C  0.84915863  0.35279566  0.21647636    -0.06480
C2069       C  0.82875689  0.33121215  0.22876305    -0.33450
C2070       C  0.83352602  0.32031300  0.25849416     0.35600
H2071       H  0.90358556  0.35327591  0.27240742     0.15970
O2072       O  0.89460832  0.38432525  0.22329080    -0.60950
H2073       H  0.80931304  0.32293234  0.21532196     0.15980
O2074       O  0.80984718  0.30531837  0.27300789    -0.61050
H2075       H  0.80865981  0.28470612  0.26294975     0.42980
H2076       H  0.88569007  0.40364957  0.23191782     0.42940
C2077       C  0.86550635  0.27108180  0.34612122    -0.06130
C2078       C  0.84041331  0.25924915  0.32945131    -0.33560
C2079       C  0.82982500  0.22939871  0.33494862     0.35690
C2080       C  0.84298258  0.21226384  0.35899437    -0.06480
C2081       C  0.86681421  0.22512308  0.37654388    -0.33450
C2082       C  0.88025228  0.25262307  0.36781039     0.35600
H2083       H  0.82756696  0.27394010  0.31422837     0.15970
O2084       O  0.80706159  0.21700799  0.31672869    -0.60950
H2085       H  0.87706090  0.21255035  0.39532828     0.15980
O2086       O  0.90479841  0.26376677  0.38424752    -0.61050
H2087       H  0.92167555  0.26619891  0.36898169     0.42980
H2088       H  0.78743841  0.22261982  0.32713380     0.42940
C2089       C  0.71844142  0.12881323  0.34495047    -0.06130
C2090       C  0.72649834  0.10061570  0.35780760    -0.33560
C2091       C  0.75290023  0.09872584  0.37541657     0.35690
C2092       C  0.77448173  0.12325628  0.37476122    -0.06480
C2093       C  0.76806765  0.14995404  0.35787130    -0.33450
C2094       C  0.74048371  0.15234940  0.34187189     0.35600
H2095       H  0.70996909  0.08182798  0.35899413     0.15970
O2096       O  0.75988735  0.07111713  0.38943713    -0.60950
H2097       H  0.78495798  0.16812431  0.35560344     0.15980
O2098       O  0.73309692  0.17959112  0.32755672    -0.61050
H2099       H  0.73712793  0.17579112  0.30534303     0.42980
H2100       H  0.74252729  0.06655767  0.40349660     0.42940
C2101       C  0.64731529  0.12766466  0.28299691    -0.06130
C2102       C  0.66148880  0.15373860  0.27009780    -0.33560
C2103       C  0.65494041  0.16197044  0.23977074     0.35690
C2104       C  0.63470125  0.14354460  0.22246907    -0.06480
C2105       C  0.62202590  0.11695155  0.23572604    -0.33450
C2106       C  0.63031956  0.10763083  0.26478552     0.35600
H2107       H  0.67477025  0.16937610  0.28451634     0.15970
O2108       O  0.67020107  0.18621232  0.22639929    -0.60950
H2109       H  0.61111656  0.09995635  0.22151657     0.15980
O2110       O  0.61819584  0.08094060  0.27668560    -0.61050
H2111       H  0.63459268  0.06514737  0.27394522     0.42980
H2112       H  0.66230371  0.20500559  0.23697856     0.42940
C2113       C  0.70601680  0.24654688  0.40032403    -0.06130
C2114       C  0.69959562  0.27662663  0.38969711    -0.33560
C2115       C  0.72268603  0.29882054  0.38610575     0.35690
C2116       C  0.75359616  0.29192970  0.39341372    -0.06480
C2117       C  0.76021120  0.26250801  0.40593458    -0.33450
C2118       C  0.73671880  0.23977437  0.40911060     0.35600
H2119       H  0.67628028  0.28293528  0.38313049     0.15970
O2120       O  0.71461792  0.32736539  0.37500204    -0.60950
H2121       H  0.78375520  0.25671515  0.41207560     0.15980
O2122       O  0.74427723  0.21091002  0.41962395    -0.61050
H2123       H  0.74988299  0.19888964  0.40091517     0.42980
H2124       H  0.71120702  0.34040853  0.39357607     0.42940
C2125       C  0.78149713  0.37149501  0.14687727    -0.06130
C2126       C  0.76492001  0.39866556  0.15093423    -0.33560
C2127       C  0.73359442  0.39700925  0.15759791     0.35690
C2128       C  0.71909032  0.36783487  0.15913414    -0.06480
C2129       C  0.73632725  0.34080652  0.15855633    -0.33450
C2130       C  0.76785327  0.34257787  0.15286642     0.35600
H2131       H  0.77545486  0.42085923  0.14622245     0.15970
O2132       O  0.71660626  0.42379130  0.15885990    -0.60950
H2133       H  0.72520249  0.31849334  0.16073286     0.15980
O2134       O  0.78489718  0.31592499  0.15081703    -0.61050
H2135       H  0.77561639  0.30417696  0.13348212     0.42980
H2136       H  0.72605625  0.43667619  0.17528901     0.42940
C2137       C  0.64703155  0.22516281  0.14046106    -0.06130
C2138       C  0.64760860  0.24088793  0.16847932    -0.33560
C2139       C  0.65282018  0.27251091  0.16820166     0.35690
C2140       C  0.65568284  0.28764164  0.13969095    -0.06480
C2141       C  0.66043286  0.27157237  0.11275298    -0.33450
C2142       C  0.65466375  0.24055855  0.11258023     0.35600
H2143       H  0.64427005  0.22887035  0.19003261     0.15970
O2144       O  0.65127491  0.28905024  0.19518813    -0.60950
H2145       H  0.66314120  0.28352490  0.09094236     0.15980
O2146       O  0.65610476  0.22536715  0.08478864    -0.61050
H2147       H  0.67820325  0.22538396  0.07877060     0.42980
H2148       H  0.67279977  0.29550711  0.19954669     0.42940
C2149       C  0.59116459  0.29409483  0.24738525    -0.06130
C2150       C  0.58604388  0.26279990  0.23908276    -0.33560
C2151       C  0.58331548  0.23943894  0.26168543     0.35690
C2152       C  0.58515187  0.24713632  0.29323087    -0.06480
C2153       C  0.58841204  0.27857748  0.30132586    -0.33450
C2154       C  0.59142435  0.30172830  0.27901395     0.35600
H2155       H  0.58537026  0.25619016  0.21495207     0.15970
O2156       O  0.58048605  0.20916710  0.25264006    -0.60950
H2157       H  0.59007876  0.28516540  0.32543550     0.15980
O2158       O  0.59531084  0.33173649  0.28859013    -0.61050
H2159       H  0.57424119  0.34073380  0.28899209     0.42980
H2160       H  0.60193484  0.20135174  0.25088431     0.42940
C2161       C  0.68333394  0.42497493  0.25884876    -0.06130
C2162       C  0.71479374  0.42716467  0.25188497    -0.33560
C2163       C  0.73733953  0.42046961  0.27420858     0.35690
C2164       C  0.72863370  0.41179359  0.30456361    -0.06480
C2165       C  0.69717731  0.41267903  0.31222376    -0.33450
C2166       C  0.67473492  0.41936180  0.28982437     0.35600
H2167       H  0.72203764  0.43093941  0.22834762     0.15970
O2168       O  0.76774736  0.42075670  0.26537266    -0.60950
H2169       H  0.68975311  0.40685566  0.33533685     0.15980
O2170       O  0.64416915  0.41754851  0.29784258    -0.61050
H2171       H  0.63833655  0.43883480  0.30413011     0.42980
H2172       H  0.77164759  0.40003962  0.25624023     0.42940
C2173       C  0.97050548  0.29951811  0.09626606    -0.06130
C2174       C  0.98520947  0.27160143  0.10378089    -0.33560
C2175       C  0.01725708  0.27106399  0.10746743     0.35690
C2176       C  0.03386116  0.29836245  0.10251638    -0.06480
C2177       C  0.01977395  0.32382312  0.08878042    -0.33450
C2178       C  0.98800806  0.32500743  0.08648300     0.35600
H2179       H  0.97180092  0.25198484  0.11151705     0.15970
O2180       O  0.03116937  0.24580976  0.12051338    -0.60950
H2181       H  0.03288875  0.34465941  0.08434894     0.15980
O2182       O  0.97414775  0.35261756  0.07910755    -0.61050
H2183       H  0.97765364  0.36650987  0.09705595     0.42980
H2184       H  0.04110378  0.23469891  0.10308193     0.42940
C2185       C  0.24714670  0.19453420  0.07704999    -0.06130
C2186       C  0.21677351  0.18851491  0.08728322    -0.33560
C2187       C  0.19368033  0.21154814  0.08837288     0.35690
C2188       C  0.19992575  0.24223978  0.07918585    -0.06480
C2189       C  0.22969105  0.24804860  0.06694804    -0.33450
C2190       C  0.25296381  0.22465002  0.06571058     0.35600
H2191       H  0.21099677  0.16578822  0.09591350     0.15970
O2192       O  0.16524117  0.20382615  0.09985663    -0.60950
H2193       H  0.23553096  0.27123947  0.05969737     0.15980
O2194       O  0.28180181  0.23220287  0.05526321    -0.61050
H2195       H  0.28129102  0.22786649  0.03278554     0.42980
H2196       H  0.15258748  0.19854163  0.08150682     0.42940
C2197       C  0.96889857  0.11189253  0.29743251    -0.06130
C2198       C  0.98429774  0.13928190  0.30408109    -0.33560
C2199       C  0.01579733  0.13950902  0.30621244     0.35690
C2200       C  0.03231843  0.11251260  0.29921066    -0.06480
C2201       C  0.01734792  0.08612039  0.28807858    -0.33450
C2202       C  0.98515596  0.08573540  0.28709805     0.35600
H2203       H  0.97175303  0.15999489  0.31076996     0.15970
O2204       O  0.03014894  0.16602108  0.31600185    -0.60950
H2205       H  0.03042572  0.06576322  0.28145649     0.15980
O2206       O  0.97026693  0.05975822  0.27722285    -0.61050
H2207       H  0.96608080  0.06327693  0.25501714     0.42980
H2208       H  0.02150882  0.17079209  0.33668818     0.42940
C2209       C  0.09748866  0.25572095  0.20550917    -0.06130
C2210       C  0.08462122  0.26049213  0.23520589    -0.33560
C2211       C  0.08385197  0.23656271  0.25741837     0.35690
C2212       C  0.09639522  0.20728199  0.25038875    -0.06480
C2213       C  0.10754428  0.20226676  0.22019578    -0.33450
C2214       C  0.10810736  0.22576141  0.19809318     0.35600
H2215       H  0.07604553  0.28314860  0.24165851     0.15970
O2216       O  0.07266357  0.24274779  0.28634202    -0.60950
H2217       H  0.11689833  0.17989782  0.21374644     0.15980
O2218       O  0.12026232  0.21919793  0.16958342    -0.61050
H2219       H  0.10239952  0.21284115  0.15672764     0.42980
H2220       H  0.05068103  0.23642212  0.28567522     0.42940
C2221       C  0.25912218  0.09994864  0.20623836    -0.06130
C2222       C  0.22790374  0.10225696  0.19835076    -0.33560
C2223       C  0.20497482  0.09932536  0.22069409     0.35690
C2224       C  0.21280638  0.09502409  0.25209763    -0.06480
C2225       C  0.24386037  0.09091614  0.26001719    -0.33450
C2226       C  0.26704217  0.09312614  0.23728233     0.35600
H2227       H  0.22112120  0.10626526  0.17462831     0.15970
O2228       O  0.17469954  0.10202232  0.21171081    -0.60950
H2229       H  0.25030796  0.08765978  0.28394331     0.15980
O2230       O  0.29733204  0.08912583  0.24569771    -0.61050
H2231       H  0.30192601  0.10609049  0.26043295     0.42980
H2232       H  0.16704408  0.08049513  0.20992857     0.42940
C2233       C  0.46234967  0.19873070  0.40090836    -0.06130
C2234       C  0.47674961  0.22683056  0.39484644    -0.33560
C2235       C  0.50874430  0.22861234  0.39681856     0.35690
C2236       C  0.52556721  0.20169031  0.40441808    -0.06480
C2237       C  0.51032046  0.17644379  0.41743533    -0.33450
C2238       C  0.47846795  0.17475147  0.41550314     0.35600
H2239       H  0.46399738  0.24556388  0.38422818     0.15970
O2240       O  0.52315927  0.25456931  0.38595369    -0.60950
H2241       H  0.52306089  0.15617741  0.42476757     0.15980
O2242       O  0.46375081  0.14788441  0.42357704    -0.61050
H2243       H  0.46851324  0.13282099  0.40690545     0.42980
H2244       H  0.52829807  0.26685146  0.40462762     0.42940
C2245       C  0.27465006  0.14565586  0.36321944    -0.06130
C2246       C  0.26138509  0.13578987  0.39093158    -0.33560
C2247       C  0.23233353  0.14600600  0.39923720     0.35690
C2248       C  0.21518449  0.16213406  0.37735766    -0.06480
C2249       C  0.23001403  0.17653359  0.35252949    -0.33450
C2250       C  0.25982554  0.16782797  0.34503437     0.35600
H2251       H  0.27324044  0.12015860  0.40618003     0.15970
O2252       O  0.21833560  0.13368269  0.42475305    -0.60950
H2253       H  0.21681477  0.18916994  0.33547279     0.15980
O2254       O  0.27364274  0.17962713  0.31915571    -0.61050
H2255       H  0.26944158  0.16433806  0.30255117     0.42980
H2256       H  0.21891510  0.15036775  0.44050005     0.42940
C2257       C  0.37666703  0.15413969  0.21103959    -0.06130
C2258       C  0.40000764  0.14524136  0.23058091    -0.33560
C2259       C  0.39081387  0.13161362  0.25751626     0.35690
C2260       C  0.36193835  0.13866270  0.27010697    -0.06480
C2261       C  0.34114387  0.15695030  0.25371319    -0.33450
C2262       C  0.34760821  0.16299564  0.22290969     0.35600
H2263       H  0.42247129  0.13948213  0.22123257     0.15970
O2264       O  0.40812848  0.10811188  0.26876802    -0.60950
H2265       H  0.31926716  0.16382982  0.26375275     0.15980
O2266       O  0.32424238  0.17207442  0.20355793    -0.61050
H2267       H  0.31908629  0.19354301  0.20983097     0.42980
H2268       H  0.39889015  0.08901873  0.25997949     0.42940
C2269       C  0.46311488  0.40649851  0.20637515    -0.06130
C2270       C  0.47589159  0.39694187  0.23456357    -0.33560
C2271       C  0.50766023  0.39233739  0.23651768     0.35690
C2272       C  0.52569046  0.39953079  0.21082734    -0.06480
C2273       C  0.51364957  0.41720059  0.18680919    -0.33450
C2274       C  0.48204500  0.41925796  0.18347508     0.35600
H2275       H  0.46128543  0.38729188  0.25237897     0.15970
O2276       O  0.51972051  0.37571196  0.26054735    -0.60950
H2277       H  0.52806441  0.42334659  0.16732703     0.15980
O2278       O  0.47024499  0.42813880  0.15551192    -0.61050
H2279       H  0.47460679  0.41083065  0.14103073     0.42980
H2280       H  0.53098474  0.39103700  0.27335886     0.42940
C2281       C  0.34524908  0.27959054  0.14945145    -0.06130
C2282       C  0.35671350  0.26103695  0.17346789    -0.33560
C2283       C  0.36044490  0.22983471  0.16894583     0.35690
C2284       C  0.34801248  0.21642947  0.14254516    -0.06480
C2285       C  0.33322530  0.23440549  0.12013778    -0.33450
C2286       C  0.33261336  0.26613958  0.12290468     0.35600
H2287       H  0.36685607  0.27097694  0.19410518     0.15970
O2288       O  0.37767127  0.21340277  0.18953738    -0.60950
H2289       H  0.32429770  0.22395311  0.09919719     0.15980
O2290       O  0.32285564  0.28354711  0.09839410    -0.61050
H2291       H  0.30071026  0.27844059  0.09558890     0.42980
H2292       H  0.39821114  0.21090097  0.17973262     0.42940
C2293       C  0.22670277  0.33934294  0.12426715    -0.06130
C2294       C  0.23872147  0.34143231  0.09438355    -0.33560
C2295       C  0.27016389  0.34063442  0.09031133     0.35690
C2296       C  0.28836418  0.33773457  0.11649155    -0.06480
C2297       C  0.27610592  0.32732556  0.14452942    -0.33450
C2298       C  0.24464647  0.32934390  0.14894143     0.35600
H2299       H  0.22423237  0.34623923  0.07476729     0.15970
O2300       O  0.28268401  0.34907611  0.06255634    -0.60950
H2301       H  0.29083037  0.32417511  0.16452166     0.15980
O2302       O  0.23217713  0.32486984  0.17769036    -0.61050
H2303       H  0.23314824  0.34533692  0.18807617     0.42980
H2304       H  0.28930931  0.32940793  0.05274533     0.42940
C2305       C  0.41280343  0.29233795  0.25193581    -0.06130
C2306       C  0.39998676  0.29579346  0.28168127    -0.33560
C2307       C  0.39768924  0.27095597  0.30229938     0.35690
C2308       C  0.40813930  0.24116086  0.29380409    -0.06480
C2309       C  0.42280710  0.23793131  0.26480161    -0.33450
C2310       C  0.42525495  0.26308990  0.24408522     0.35600
H2311       H  0.39046862  0.31785988  0.28884902     0.15970
O2312       O  0.38420546  0.27613242  0.33048382    -0.60950
H2313       H  0.43164528  0.21556863  0.25769551     0.15980
O2314       O  0.43948514  0.25854438  0.21617887    -0.61050
H2315       H  0.42256080  0.25567118  0.20108457     0.42980
H2316       H  0.40154475  0.28096209  0.34465261     0.42940
C2317       C  0.14093004  0.35947571  0.22071337    -0.06130
C2318       C  0.12743047  0.38707901  0.23040292    -0.33560
C2319       C  0.11591215  0.39002776  0.25930347     0.35690
C2320       C  0.11879565  0.36511410  0.27991569    -0.06480
C2321       C  0.12912261  0.33618525  0.26967796    -0.33450
C2322       C  0.14073347  0.33331790  0.23988611     0.35600
H2323       H  0.12629460  0.40738631  0.21589122     0.15970
O2324       O  0.10766698  0.41922846  0.26895566    -0.60950
H2325       H  0.13180707  0.31717911  0.28561931     0.15980
O2326       O  0.15290998  0.30561890  0.23026740    -0.61050
H2327       H  0.17532576  0.30705804  0.23468761     0.42980
H2328       H  0.12663445  0.43207048  0.26826252     0.42940
C2329       C  0.15182873  0.28466439  0.34127258    -0.06130
C2330       C  0.12193419  0.27302675  0.34322479    -0.33560
C2331       C  0.11681435  0.24641503  0.35963592     0.35690
C2332       C  0.14173762  0.22712279  0.36740102    -0.06480
C2333       C  0.17189044  0.23680678  0.36189762    -0.33450
C2334       C  0.17715368  0.26524432  0.34802470     0.35600
H2335       H  0.10204287  0.28702118  0.33717270     0.15970
O2336       O  0.08701001  0.23751020  0.36532578    -0.60950
H2337       H  0.19108984  0.22202273  0.36742455     0.15980
O2338       O  0.20692689  0.27534541  0.34436286    -0.61050
H2339       H  0.21161275  0.27204766  0.32220079     0.42980
H2340       H  0.07835281  0.23089596  0.34517767     0.42940
C2341       C  0.25427303  0.29885544  0.41595745    -0.06130
C2342       C  0.24454699  0.26821148  0.42158418    -0.33560
C2343       C  0.26536742  0.24285587  0.41971430     0.35690
C2344       C  0.29668432  0.24751282  0.41165730    -0.06480
C2345       C  0.30657768  0.27821561  0.40763395    -0.33450
C2346       C  0.28608126  0.30345599  0.40999198     0.35600
H2347       H  0.22034948  0.26360140  0.42580252     0.15970
O2348       O  0.25421272  0.21348925  0.42343444    -0.60950
H2349       H  0.33045971  0.28276903  0.40182167     0.15980
O2350       O  0.29741587  0.33258631  0.40504545    -0.61050
H2351       H  0.30193170  0.34097132  0.42589693     0.42980
H2352       H  0.25589843  0.20934811  0.44585208     0.42940
C2353       C  0.24122530  0.38517852  0.29471127    -0.06130
C2354       C  0.23773472  0.40263248  0.26760337    -0.33560
C2355       C  0.26069010  0.40300054  0.24452168     0.35690
C2356       C  0.28834557  0.38577703  0.24796762    -0.06480
C2357       C  0.29197393  0.36860383  0.27534927    -0.33450
C2358       C  0.26890133  0.36820509  0.29840794     0.35600
H2359       H  0.21699222  0.41624904  0.26425504     0.15970
O2360       O  0.25582505  0.42071487  0.21881313    -0.60950
H2361       H  0.31290081  0.35538113  0.27903647     0.15980
O2362       O  0.27413516  0.35177508  0.32488971    -0.61050
H2363       H  0.28366437  0.36671816  0.33946563     0.42980
H2364       H  0.26427619  0.44136586  0.22410741     0.42940
C2365       C  0.89974096  0.97215445  0.29232949    -0.06130
C2366       C  0.89092723  0.98703760  0.26488614    -0.33560
C2367       C  0.89726269  0.01829050  0.26119262     0.35690
C2368       C  0.91122221  0.03393690  0.28576345    -0.06480
C2369       C  0.92867765  0.01702535  0.30721727    -0.33450
C2370       C  0.92096070  0.98631814  0.31226048     0.35600
H2371       H  0.87583353  0.97575650  0.24837993     0.15970
O2372       O  0.88258199  0.03436505  0.23825222    -0.60950
H2373       H  0.94143065  0.02911649  0.32510258     0.15980
O2374       O  0.93177272  0.97150061  0.33801744    -0.61050
H2375       H  0.91874614  0.97908073  0.35529420     0.42980
H2376       H  0.89926293  0.04105532  0.22414251     0.42940
C2377       C  0.91384565  0.79073393  0.26226306    -0.06130
C2378       C  0.88843961  0.77061826  0.26031683    -0.33560
C2379       C  0.88756853  0.74612411  0.23888846     0.35690
C2380       C  0.91252638  0.74064782  0.21862515    -0.06480
C2381       C  0.93916575  0.75911281  0.22221167    -0.33450
C2382       C  0.93997145  0.78390311  0.24388636     0.35600
H2383       H  0.86811135  0.77515723  0.27421296     0.15970
O2384       O  0.86129783  0.72853071  0.23672241    -0.60950
H2385       H  0.95840601  0.75594128  0.20655917     0.15980
O2386       O  0.96509971  0.80308759  0.24451880    -0.61050
H2387       H  0.97429885  0.80036252  0.26528683     0.42980
H2388       H  0.84633125  0.74128683  0.22499482     0.42940
C2389       C  0.68710170  0.96888465  0.08575188    -0.06130
C2390       C  0.71718171  0.98070777  0.08391789    -0.33560
C2391       C  0.72126325  0.01244274  0.08392794     0.35690
C2392       C  0.69481407  0.03111538  0.08599682    -0.06480
C2393       C  0.66618891  0.01917986  0.07664152    -0.33450
C2394       C  0.66184958  0.98748056  0.07781651     0.35600
H2395       H  0.73713056  0.96602446  0.08762239     0.15970
O2396       O  0.75025239  0.02423614  0.08872359    -0.60950
H2397       H  0.64605138  0.03399291  0.07497913     0.15980
O2398       O  0.63270176  0.97535938  0.07504969    -0.61050
H2399       H  0.62190024  0.98087399  0.09449965     0.42980
H2400       H  0.75608603  0.03383481  0.06884103     0.42940
C2401       C  0.73895565  0.79133748  0.10808475    -0.06130
C2402       C  0.73844992  0.76478325  0.08893752    -0.33560
C2403       C  0.76252260  0.74249864  0.08986487     0.35690
C2404       C  0.78789234  0.74656264  0.11002087    -0.06480
C2405       C  0.78782196  0.77299202  0.12924908    -0.33450
C2406       C  0.76411261  0.79497460  0.12832756     0.35600
H2407       H  0.71936767  0.76131231  0.07313860     0.15970
O2408       O  0.76070483  0.71680766  0.07132624    -0.60950
H2409       H  0.80675384  0.77728527  0.14502434     0.15980
O2410       O  0.76660122  0.82075556  0.14662959    -0.61050
H2411       H  0.77778695  0.83604543  0.13384591     0.42980
H2412       H  0.76987298  0.72312193  0.05137339     0.42940
C2413       C  0.75087751  0.91005148  0.19680082    -0.06130
C2414       C  0.77329297  0.88668077  0.19779899    -0.33560
C2415       C  0.79272092  0.88243164  0.22294150     0.35690
C2416       C  0.79219499  0.90304174  0.24857174    -0.06480
C2417       C  0.76985243  0.92699998  0.24796771    -0.33450
C2418       C  0.74897194  0.93023292  0.22261824     0.35600
H2419       H  0.77537320  0.87016888  0.17915635     0.15970
O2420       O  0.81243458  0.85757490  0.22161515    -0.60950
H2421       H  0.76847597  0.94314725  0.26708347     0.15980
O2422       O  0.72697932  0.95302013  0.22346781    -0.61050
H2423       H  0.73669733  0.97109036  0.21340144     0.42980
H2424       H  0.80067410  0.84008380  0.23049278     0.42940
C2425       C  0.58537330  0.52923637  0.20145346    -0.06130
C2426       C  0.58686266  0.51262295  0.22910930    -0.33560
C2427       C  0.58187073  0.48079143  0.22858060     0.35690
C2428       C  0.57546744  0.46638832  0.20014404    -0.06480
C2429       C  0.56556368  0.48421929  0.17522568    -0.33450
C2430       C  0.57080778  0.51591156  0.17554567     0.35600
H2431       H  0.59645376  0.52304410  0.24977524     0.15970
O2432       O  0.58912164  0.46361047  0.25414897    -0.60950
H2433       H  0.55930815  0.47317850  0.15360362     0.15980
O2434       O  0.56669878  0.53243010  0.14887353    -0.61050
H2435       H  0.54457007  0.53014366  0.14344937     0.42980
H2436       H  0.61200710  0.46288543  0.25483784     0.42940
C2437       C  0.65860879  0.71356585  0.12723730    -0.06130
C2438       C  0.66682605  0.73453142  0.15029831    -0.33560
C2439       C  0.65452194  0.76399087  0.15007957     0.35690
C2440       C  0.63443757  0.77259612  0.12616931    -0.06480
C2441       C  0.62819399  0.75163949  0.10205472    -0.33450
C2442       C  0.64297701  0.72349823  0.10096130     0.35600
H2443       H  0.67912600  0.72688700  0.17067204     0.15970
O2444       O  0.66384321  0.78450367  0.17217556    -0.60950
H2445       H  0.61462233  0.75852417  0.08221080     0.15980
O2446       O  0.63724891  0.70380815  0.07671206    -0.61050
H2447       H  0.65640600  0.70399208  0.06420881     0.42980
H2448       H  0.65797652  0.77516398  0.19220002     0.42940
C2449       C  0.72095606  0.63472588  0.12752766    -0.06130
C2450       C  0.73950218  0.60902418  0.12069523    -0.33560
C2451       C  0.76609915  0.60368694  0.13761511     0.35690
C2452       C  0.77716688  0.62704674  0.15705223    -0.06480
C2453       C  0.75815115  0.65208416  0.16478671    -0.33450
C2454       C  0.73192280  0.65761551  0.14756814     0.35600
H2455       H  0.73079583  0.59050299  0.10634177     0.15970
O2456       O  0.78340987  0.57777087  0.13161561    -0.60950
H2457       H  0.76672479  0.67062968  0.17933973     0.15980
O2458       O  0.71492134  0.68354437  0.15359395    -0.61050
H2459       H  0.72472187  0.70000724  0.14113073     0.42980
H2460       H  0.77806175  0.56308915  0.14826269     0.42940
C2461       C  0.78075917  0.84677669  0.36705537    -0.06130
C2462       C  0.76366644  0.87019540  0.38149511    -0.33560
C2463       C  0.73679222  0.88085428  0.36780622     0.35690
C2464       C  0.72138007  0.86177673  0.34667299    -0.06480
C2465       C  0.73694699  0.83638384  0.33378190    -0.33450
C2466       C  0.76705333  0.82956400  0.34301679     0.35600
H2467       H  0.77432552  0.88452299  0.39905180     0.15970
O2468       O  0.72323194  0.90732721  0.37898808    -0.60950
H2469       H  0.72513430  0.82096837  0.31793100     0.15980
O2470       O  0.78360715  0.80764054  0.32713732    -0.61050
H2471       H  0.79210862  0.81847922  0.30890896     0.42980
H2472       H  0.71764008  0.91978689  0.36065771     0.42940
C2473       C  0.64184172  0.84418862  0.27205861    -0.06130
C2474       C  0.62040557  0.83074882  0.25180745    -0.33560
C2475       C  0.62744135  0.82606813  0.22135698     0.35690
C2476       C  0.65556979  0.83730780  0.21005180    -0.06480
C2477       C  0.67842664  0.84790294  0.23063011    -0.33450
C2478       C  0.67144422  0.85188977  0.26171506     0.35600
H2479       H  0.59742499  0.82432259  0.25924679     0.15970
O2480       O  0.60496151  0.81430887  0.20227739    -0.60950
H2481       H  0.70045654  0.85619081  0.22221006     0.15980
O2482       O  0.69311483  0.86417576  0.28123508    -0.61050
H2483       H  0.69129333  0.88689679  0.27886600     0.42980
H2484       H  0.60480561  0.79173458  0.20613371     0.42940
C2485       C  0.59883671  0.70955463  0.24271445    -0.06130
C2486       C  0.62343132  0.73045003  0.24643040    -0.33560
C2487       C  0.62283113  0.75358850  0.26947404     0.35690
C2488       C  0.59707299  0.75681706  0.28921392    -0.06480
C2489       C  0.57208943  0.73643871  0.28493122    -0.33450
C2490       C  0.57277809  0.71312540  0.26193944     0.35600
H2491       H  0.64400759  0.72774618  0.23245647     0.15970
O2492       O  0.64851358  0.77157124  0.27383327    -0.60950
H2493       H  0.55265527  0.73748703  0.30062585     0.15980
O2494       O  0.54916020  0.69211426  0.26049483    -0.61050
H2495       H  0.53457826  0.70051715  0.24500718     0.42980
H2496       H  0.66154367  0.76007616  0.28870667     0.42940
C2497       C  0.82099042  0.52603639  0.40833125    -0.06130
C2498       C  0.84793530  0.50820072  0.40793246    -0.33560
C2499       C  0.84552118  0.47706206  0.40088013     0.35690
C2500       C  0.81604040  0.46474039  0.39555499    -0.06480
C2501       C  0.78973067  0.48045840  0.40562687    -0.33450
C2502       C  0.79213850  0.51160400  0.41258454     0.35600
H2503       H  0.87050707  0.51896072  0.40746645     0.15970
O2504       O  0.87168832  0.45984258  0.39564891    -0.60950
H2505       H  0.76701442  0.47017205  0.40359347     0.15980
O2506       O  0.76565246  0.52843351  0.41722583    -0.61050
H2507       H  0.76052446  0.52557048  0.43931453     0.42980
H2508       H  0.88022656  0.46735641  0.37581940     0.42940
C2509       C  0.85484842  0.62351806  0.22469420    -0.06130
C2510       C  0.87970359  0.61701020  0.24410179    -0.33560
C2511       C  0.88292343  0.63320164  0.27142865     0.35690
C2512       C  0.85731721  0.64875604  0.28369519    -0.06480
C2513       C  0.83112776  0.65348877  0.26540343    -0.33450
C2514       C  0.82990505  0.64099836  0.23586343     0.35600
H2515       H  0.89937542  0.60437209  0.23534022     0.15970
O2516       O  0.91020483  0.63124934  0.28736015    -0.60950
H2517       H  0.81089427  0.66486928  0.27486570     0.15980
O2518       O  0.80528045  0.64772116  0.21738908    -0.61050
H2519       H  0.78909265  0.63269557  0.22331329     0.42980
H2520       H  0.92190498  0.65000068  0.28150116     0.42940
C2521       C  0.86619994  0.71153047  0.35888607    -0.06130
C2522       C  0.89452482  0.72576657  0.35731758    -0.33560
C2523       C  0.89535303  0.75734431  0.35893621     0.35690
C2524       C  0.86732598  0.77413125  0.36104509    -0.06480
C2525       C  0.83898166  0.75971183  0.35815835    -0.33450
C2526       C  0.83847931  0.72800770  0.35565429     0.35600
H2527       H  0.91577290  0.71253521  0.35798123     0.15970
O2528       O  0.92356751  0.77173878  0.35931926    -0.60950
H2529       H  0.81775036  0.77281423  0.35733903     0.15980
O2530       O  0.81088977  0.71307438  0.35227030    -0.61050
H2531       H  0.81005837  0.70678287  0.33025170     0.42980
H2532       H  0.93108371  0.77094026  0.33770647     0.42940
C2533       C  0.70291325  0.57809368  0.25441675    -0.06130
C2534       C  0.73497594  0.57553067  0.24925906    -0.33560
C2535       C  0.75633710  0.57515226  0.27431244     0.35690
C2536       C  0.74598690  0.57756977  0.30539360    -0.06480
C2537       C  0.71383721  0.57784001  0.31017844    -0.33450
C2538       C  0.69272325  0.57798106  0.28544532     0.35600
H2539       H  0.74367112  0.57589478  0.22583423     0.15970
O2540       O  0.78730586  0.57423795  0.26790711    -0.60950
H2541       H  0.70480468  0.57952137  0.33343012     0.15980
O2542       O  0.66180596  0.58005754  0.29200463    -0.61050
H2543       H  0.65395012  0.55859262  0.29038986     0.42980
H2544       H  0.79413223  0.59607409  0.26851479     0.42940
C2545       C  0.75344285  0.70182189  0.39572001    -0.06130
C2546       C  0.72358169  0.69493632  0.38600685    -0.33560
C2547       C  0.69987455  0.71649062  0.38910494     0.35690
C2548       C  0.70581268  0.74670663  0.40072323    -0.06480
C2549       C  0.73583700  0.75370206  0.41077230    -0.33450
C2550       C  0.75949779  0.73126958  0.40879967     0.35600
H2551       H  0.71824539  0.67215413  0.37695356     0.15970
O2552       O  0.67070105  0.70750688  0.38059361    -0.60950
H2553       H  0.74110837  0.77659808  0.41950064     0.15980
O2554       O  0.78869022  0.73872598  0.41853233    -0.61050
H2555       H  0.78858643  0.73526140  0.44113087     0.42980
H2556       H  0.66069383  0.70062811  0.39995101     0.42940
C2557       C  0.27644549  0.96685115  0.10245707    -0.06130
C2558       C  0.25690017  0.98162959  0.12368916    -0.33560
C2559       C  0.25865737  0.01356641  0.12713746     0.35690
C2560       C  0.27948779  0.02984878  0.10865585    -0.06480
C2561       C  0.29328422  0.01571315  0.08315463    -0.33450
C2562       C  0.29163559  0.98396556  0.07972436     0.35600
H2563       H  0.24478893  0.96837385  0.14104281     0.15970
O2564       O  0.24487942  0.02750490  0.15208510    -0.60950
H2565       H  0.30970770  0.02811814  0.06924131     0.15980
O2566       O  0.30911944  0.96956315  0.05747922    -0.61050
H2567       H  0.33091400  0.97188100  0.06415171     0.42980
H2568       H  0.22743236  0.03953401  0.14342022     0.42940
C2569       C  0.09826572  0.96829795  0.30055713    -0.06130
C2570       C  0.10216777  0.98302752  0.27209280    -0.33560
C2571       C  0.10459881  0.01501163  0.27120134     0.35690
C2572       C  0.10225113  0.03177521  0.29899946    -0.06480
C2573       C  0.09056202  0.01741024  0.32541495    -0.33450
C2574       C  0.08859879  0.98545462  0.32640596     0.35600
H2575       H  0.10778902  0.96992379  0.25146991     0.15970
O2576       O  0.11298185  0.02899652  0.24410977    -0.60950
H2577       H  0.08671984  0.03044483  0.34649582     0.15980
O2578       O  0.08178186  0.97129559  0.35383679    -0.61050
H2579       H  0.06036954  0.97770099  0.35881676     0.42980
H2580       H  0.13554449  0.02550266  0.24214771     0.42940
C2581       C  0.96819867  0.91359295  0.30741387    -0.06130
C2582       C  0.98365745  0.92052419  0.33501902    -0.33560
C2583       C  0.01561206  0.91827491  0.33632259     0.35690
C2584       C  0.03164501  0.90951037  0.30945801    -0.06480
C2585       C  0.01685022  0.91143724  0.28072572    -0.33450
C2586       C  0.98482584  0.91305276  0.27952274     0.35600
H2587       H  0.97106414  0.92295372  0.35649743     0.15970
O2588       O  0.03008417  0.91927446  0.36452961    -0.60950
H2589       H  0.02936192  0.90705820  0.25949979     0.15980
O2590       O  0.97019593  0.90993747  0.25155858    -0.61050
H2591       H  0.97271377  0.88789238  0.24559770     0.42980
H2592       H  0.02457563  0.93953120  0.37382949     0.42940
C2593       C  0.20665069  0.89726439  0.24912524    -0.06130
C2594       C  0.23547555  0.91101373  0.25601781    -0.33560
C2595       C  0.26021287  0.91036509  0.23430842     0.35690
C2596       C  0.25661312  0.89530185  0.20542825    -0.06480
C2597       C  0.22772914  0.88248160  0.19859340    -0.33450
C2598       C  0.20322577  0.88346172  0.21952052     0.35600
H2599       H  0.23909254  0.92162538  0.27840822     0.15970
O2600       O  0.28806392  0.92316635  0.24216419    -0.60950
H2601       H  0.22377823  0.87161217  0.17635157     0.15980
O2602       O  0.17552020  0.87121804  0.21016154    -0.61050
H2603       H  0.17796190  0.84848750  0.21199405     0.42980
H2604       H  0.28661946  0.94506280  0.23565569     0.42940
C2605       C  0.96245128  0.69664824  0.08951818    -0.06130
C2606       C  0.97677585  0.66903895  0.08009501    -0.33560
C2607       C  0.00849705  0.66633212  0.08385409     0.35690
C2608       C  0.02480406  0.69226038  0.09456306    -0.06480
C2609       C  0.01132888  0.72174971  0.09218969    -0.33450
C2610       C  0.97954454  0.72411368  0.08934778     0.35600
H2611       H  0.96339250  0.64815485  0.07665043     0.15970
O2612       O  0.02236500  0.63788796  0.08111007    -0.60950
H2613       H  0.02436351  0.74247296  0.09745389     0.15980
O2614       O  0.96564068  0.75232998  0.09353302    -0.61050
H2615       H  0.95636945  0.75740500  0.07325219     0.42980
H2616       H  0.01598808  0.62615552  0.09965691     0.42940
C2617       C  0.19162445  0.75162511  0.08451980    -0.06130
C2618       C  0.18289067  0.78149566  0.07472290    -0.33560
C2619       C  0.20286255  0.80721852  0.07798999     0.35690
C2620       C  0.23224747  0.80369858  0.09157980    -0.06480
C2621       C  0.24144174  0.77364353  0.10014947    -0.33450
C2622       C  0.22142955  0.74806012  0.09716101     0.35600
H2623       H  0.15974242  0.78523849  0.06601272     0.15970
O2624       O  0.19309718  0.83576633  0.06843179    -0.60950
H2625       H  0.26379416  0.77018048  0.11085746     0.15980
O2626       O  0.23017759  0.72024616  0.10943210    -0.61050
H2627       H  0.24460450  0.71114083  0.09413853     0.42980
H2628       H  0.20114125  0.83788375  0.04712463     0.42940
C2629       C  0.09050093  0.73899928  0.21495183    -0.06130
C2630       C  0.06213395  0.74976308  0.22699965    -0.33560
C2631       C  0.06140106  0.77284388  0.25043816     0.35690
C2632       C  0.08919713  0.78470428  0.26263215    -0.06480
C2633       C  0.11708377  0.77124031  0.25274366    -0.33450
C2634       C  0.11795896  0.74959517  0.22876142     0.35600
H2635       H  0.04067998  0.74213801  0.21664545     0.15970
O2636       O  0.03368190  0.78509956  0.25950662    -0.60950
H2637       H  0.13885857  0.77952753  0.26193293     0.15980
O2638       O  0.14613029  0.73998751  0.21791704    -0.61050
H2639       H  0.15372082  0.75709291  0.20479264     0.42980
H2640       H  0.03063900  0.80351594  0.24630275     0.42940
C2641       C  0.46141673  0.80115502  0.40771204    -0.06130
C2642       C  0.47864804  0.82834233  0.41086461    -0.33560
C2643       C  0.50996297  0.82753901  0.40472213     0.35690
C2644       C  0.52396889  0.79908352  0.39786328    -0.06480
C2645       C  0.50823013  0.77139162  0.40253534    -0.33450
C2646       C  0.47664122  0.77226136  0.40791180     0.35600
H2647       H  0.46741467  0.85067075  0.41286988     0.15970
O2648       O  0.52625117  0.85469743  0.40311476    -0.60950
H2649       H  0.51963345  0.74935453  0.39887757     0.15980
O2650       O  0.46053436  0.74499863  0.40835404    -0.61050
H2651       H  0.45552533  0.74152747  0.43038359     0.42980
H2652       H  0.52077523  0.86385035  0.38288432     0.42940
C2653       C  0.35232951  0.85401416  0.27068629    -0.06130
C2654       C  0.35968472  0.88350851  0.26107389    -0.33560
C2655       C  0.37647378  0.88714525  0.23452357     0.35690
C2656       C  0.37970703  0.86184007  0.21400566    -0.06480
C2657       C  0.37100086  0.83229210  0.22301664    -0.33450
C2658       C  0.35595460  0.82840022  0.25084205     0.35600
H2659       H  0.35674813  0.90332863  0.27626771     0.15970
O2660       O  0.38347738  0.91666382  0.22553329    -0.60950
H2661       H  0.37343323  0.81285527  0.20760807     0.15980
O2662       O  0.34838616  0.79915433  0.26031508    -0.61050
H2663       H  0.32644969  0.79646690  0.25436853     0.42980
H2664       H  0.39653266  0.92550391  0.24218168     0.42940
C2665       C  0.27810009  0.86530993  0.33653179    -0.06130
C2666       C  0.26345211  0.83749029  0.32852402    -0.33560
C2667       C  0.23656697  0.82856734  0.34398116     0.35690
C2668       C  0.22271805  0.84871749  0.36556031    -0.06480
C2669       C  0.23779116  0.87688666  0.37227527    -0.33450
C2670       C  0.26126843  0.88713751  0.35279502     0.35600
H2671       H  0.27541130  0.82069671  0.31421952     0.15970
O2672       O  0.22243296  0.80152628  0.33577430    -0.60950
H2673       H  0.22672829  0.89374414  0.38709297     0.15980
O2674       O  0.27103930  0.91721231  0.35345320    -0.61050
H2675       H  0.25640013  0.92849900  0.33997258     0.42980
H2676       H  0.23388697  0.78521334  0.34703180     0.42940
C2677       C  0.40068547  0.52331831  0.21039623    -0.06130
C2678       C  0.41368563  0.50565112  0.18685091    -0.33560
C2679       C  0.41029504  0.47378316  0.18756680     0.35690
C2680       C  0.39521570  0.46052519  0.21303990    -0.06480
C2681       C  0.39008957  0.47739031  0.23990485    -0.33450
C2682       C  0.39266492  0.50935946  0.23876045     0.35600
H2683       H  0.42119130  0.51657453  0.16568178     0.15970
O2684       O  0.41435752  0.45663209  0.16095552    -0.60950
H2685       H  0.37922992  0.46668563  0.25967455     0.15980
O2686       O  0.38273170  0.52654799  0.26357559    -0.61050
H2687       H  0.35984198  0.52566767  0.26291277     0.42980
H2688       H  0.42939361  0.46758605  0.14767389     0.42940
C2689       C  0.46939207  0.58614591  0.19418058    -0.06130
C2690       C  0.48520047  0.58826039  0.22227972    -0.33560
C2691       C  0.51685707  0.59328078  0.22219698     0.35690
C2692       C  0.53237493  0.59540854  0.19366878    -0.06480
C2693       C  0.51746411  0.58580148  0.16660082    -0.33450
C2694       C  0.48600085  0.58013363  0.16691694     0.35600
H2695       H  0.47277988  0.59079956  0.24384576     0.15970
O2696       O  0.53151270  0.59930674  0.24966478    -0.60950
H2697       H  0.52945101  0.58552695  0.14467008     0.15980
O2698       O  0.47124072  0.57377284  0.13960999    -0.61050
H2699       H  0.46697261  0.55127286  0.14017205     0.42980
H2700       H  0.52641402  0.62111705  0.25475264     0.42940
C2701       C  0.36220887  0.78230854  0.15816930    -0.06130
C2702       C  0.33618707  0.76419322  0.16442840    -0.33560
C2703       C  0.33549820  0.73387749  0.15406360     0.35690
C2704       C  0.36164022  0.72155646  0.13958423    -0.06480
C2705       C  0.38874002  0.73904778  0.13707438    -0.33450
C2706       C  0.38986366  0.76843056  0.14934332     0.35600
H2707       H  0.31500132  0.77486647  0.17252282     0.15970
O2708       O  0.30975768  0.71626558  0.15889801    -0.60950
H2709       H  0.40999010  0.72863659  0.12873548     0.15980
O2710       O  0.41680691  0.78499276  0.14789417    -0.61050
H2711       H  0.42228161  0.78980950  0.16960579     0.42980
H2712       H  0.29590224  0.72090350  0.14128050     0.42940
C2713       C  0.22440879  0.64369586  0.13234767    -0.06130
C2714       C  0.23770530  0.65238564  0.16016902    -0.33560
C2715       C  0.26919439  0.65751977  0.16120155     0.35690
C2716       C  0.28695033  0.65302858  0.13430643    -0.06480
C2717       C  0.27309915  0.64858496  0.10588396    -0.33450
C2718       C  0.24177383  0.64340655  0.10480324     0.35600
H2719       H  0.22381515  0.65527923  0.18075723     0.15970
O2720       O  0.28316506  0.66343413  0.18900843    -0.60950
H2721       H  0.28685315  0.64530997  0.08521615     0.15980
O2722       O  0.22814760  0.63793585  0.07674472    -0.61050
H2723       H  0.22601151  0.65851659  0.06696609     0.42980
H2724       H  0.28272017  0.64351865  0.20015332     0.42940
C2725       C  0.41549739  0.74733443  0.29433294    -0.06130
C2726       C  0.41672725  0.75481343  0.26272251    -0.33560
C2727       C  0.41728006  0.73132474  0.23973990     0.35690
C2728       C  0.41666287  0.69978895  0.24811336    -0.06480
C2729       C  0.41730364  0.69259384  0.27967940    -0.33450
C2730       C  0.41653414  0.71579309  0.30248168     0.35600
H2731       H  0.41482418  0.77875730  0.25575479     0.15970
O2732       O  0.41512604  0.73947590  0.20933810    -0.60950
H2733       H  0.41637802  0.66862546  0.28679072     0.15980
O2734       O  0.41514773  0.70731283  0.33292781    -0.61050
H2735       H  0.39326840  0.70171381  0.33664623     0.42980
H2736       H  0.43658357  0.73868405  0.20143377     0.42940
C2737       C  0.20845483  0.52686018  0.41215256    -0.06130
C2738       C  0.23670830  0.51600634  0.40033082    -0.33560
C2739       C  0.24203329  0.48421262  0.39823644     0.35690
C2740       C  0.21899854  0.46413244  0.40857299    -0.06480
C2741       C  0.19619476  0.47554655  0.42876445    -0.33450
C2742       C  0.18948768  0.50697391  0.42893334     0.35600
H2743       H  0.25187884  0.53148357  0.38791255     0.15970
O2744       O  0.26557599  0.47347150  0.37996860    -0.60950
H2745       H  0.17860538  0.46019700  0.43745138     0.15980
O2746       O  0.16227534  0.51726947  0.44156967    -0.61050
H2747       H  0.14598749  0.51162409  0.42646606     0.42980
H2748       H  0.28102288  0.46495285  0.39453638     0.42940
C2749       C  0.12786704  0.70724590  0.34481404    -0.06130
C2750       C  0.10259444  0.72483862  0.35245195    -0.33560
C2751       C  0.10749284  0.75358200  0.36496752     0.35690
C2752       C  0.13664720  0.76796510  0.36251497    -0.06480
C2753       C  0.16087510  0.75202207  0.34843789    -0.33450
C2754       C  0.15689498  0.72100428  0.34042071     0.35600
H2755       H  0.08008164  0.71418441  0.35509972     0.15970
O2756       O  0.08279796  0.76880648  0.37731303    -0.60950
H2757       H  0.18231221  0.76341348  0.34337164     0.15980
O2758       O  0.18126309  0.70367082  0.32967110    -0.61050
H2759       H  0.19891201  0.70788475  0.34360826     0.42980
H2760       H  0.06746789  0.77080155  0.36038369     0.42940
C2761       C  0.15184872  0.63168239  0.27839937    -0.06130
C2762       C  0.16333243  0.65822815  0.26435629    -0.33560
C2763       C  0.16831969  0.65820018  0.23259326     0.35690
C2764       C  0.16060115  0.63188359  0.21509147    -0.06480
C2765       C  0.15402541  0.60415245  0.22969985    -0.33450
C2766       C  0.14921553  0.60399709  0.26133524     0.35600
H2767       H  0.16774088  0.67893712  0.27769097     0.15970
O2768       O  0.17687742  0.68495277  0.21815820    -0.60950
H2769       H  0.14841210  0.58367877  0.21629854     0.15980
O2770       O  0.14153475  0.57675296  0.27538175    -0.61050
H2771       H  0.12009967  0.57230089  0.26868315     0.42980
H2772       H  0.19923119  0.68725762  0.22250965     0.42940
C2773       C  0.28939381  0.58986759  0.24718388    -0.06130
C2774       C  0.27545289  0.56075107  0.25264927    -0.33560
C2775       C  0.25341457  0.55674291  0.27679724     0.35690
C2776       C  0.24529358  0.58196111  0.29600895    -0.06480
C2777       C  0.25796054  0.61098865  0.28902152    -0.33450
C2778       C  0.27924645  0.61516601  0.26528916     0.35600
H2779       H  0.28255551  0.54086819  0.23912419     0.15970
O2780       O  0.24096551  0.52812981  0.28192255    -0.60950
H2781       H  0.25147303  0.63121100  0.30242272     0.15980
O2782       O  0.29098781  0.64429817  0.26090952    -0.61050
H2783       H  0.27340794  0.65707388  0.25364670     0.42980
H2784       H  0.25488858  0.51820900  0.29712460     0.42940
C2785       C  0.28615606  0.74648896  0.39581554    -0.06130
C2786       C  0.25661549  0.75310711  0.40732503    -0.33560
C2787       C  0.23360469  0.73004063  0.40769090     0.35690
C2788       C  0.24011407  0.69988273  0.39635528    -0.06480
C2789       C  0.26995550  0.69328418  0.38601953    -0.33450
C2790       C  0.29281063  0.71583190  0.38612804     0.35600
H2791       H  0.25104934  0.77629925  0.41507854     0.15970
O2792       O  0.20485683  0.73729363  0.41887895    -0.60950
H2793       H  0.27585447  0.67027797  0.37792635     0.15980
O2794       O  0.32180408  0.70745583  0.37639628    -0.61050
H2795       H  0.33344121  0.70275068  0.39552581     0.42980
H2796       H  0.19543367  0.75101475  0.40322509     0.42940
C2797       C  0.30342629  0.91692213  0.96673953    -0.06130
C2798       C  0.27524206  0.91630674  0.98263819    -0.33560
C2799       C  0.27535387  0.90945423  0.01390337     0.35690
C2800       C  0.30390838  0.90449084  0.02848319    -0.06480
C2801       C  0.33116676  0.91457069  0.01450385    -0.33450
C2802       C  0.33089240  0.92179665  0.98333827     0.35600
H2803       H  0.25355072  0.91497636  0.97022985     0.15970
O2804       O  0.24804867  0.90229017  0.02816117    -0.60950
H2805       H  0.35301121  0.91342726  0.02666672     0.15980
O2806       O  0.35808420  0.92842482  0.96845983    -0.61050
H2807       H  0.37102088  0.90953318  0.97000415     0.42980
H2808       H  0.24199589  0.92138100  0.03939359     0.42940
C2809       C  0.08569358  0.68499944  0.96808639    -0.06130
C2810       C  0.07929400  0.71309383  0.98318000    -0.33560
C2811       C  0.07673735  0.71387986  0.01514259     0.35690
C2812       C  0.08081636  0.68627814  0.03165916    -0.06480
C2813       C  0.07848072  0.65790530  0.01597039    -0.33450
C2814       C  0.08142296  0.65706334  0.98401574     0.35600
H2815       H  0.08030995  0.73481875  0.97088497     0.15970
O2816       O  0.07516027  0.74196880  0.02986422    -0.60950
H2817       H  0.07906847  0.63625967  0.02844655     0.15980
O2818       O  0.08357016  0.62900005  0.96922108    -0.61050
H2819       H  0.10436643  0.62085092  0.97437396     0.42980
H2820       H  0.05330655  0.74412079  0.03633116     0.42940
C2821       C  0.20137178  0.75061734  0.92323299    -0.06130
C2822       C  0.23269795  0.74287819  0.91892946    -0.33560
C2823       C  0.25581126  0.76607785  0.91730075     0.35690
C2824       C  0.24814139  0.79776349  0.92066183    -0.06480
C2825       C  0.21704871  0.80511917  0.92658256    -0.33450
C2826       C  0.19403071  0.78214765  0.92785797     0.35600
H2827       H  0.23897082  0.71907934  0.91410622     0.15970
O2828       O  0.28530035  0.75760436  0.90974647    -0.60950
H2829       H  0.21020009  0.82915912  0.92846652     0.15980
O2830       O  0.16382868  0.79109420  0.93122730    -0.61050
H2831       H  0.15935820  0.78876301  0.95352955     0.42980
H2832       H  0.28562648  0.75649342  0.88688238     0.42940
C2833       C  0.09049478  0.79632425  0.74698771    -0.06130
C2834       C  0.10196618  0.80415370  0.77627853    -0.33560
C2835       C  0.10368679  0.78259054  0.80014813     0.35690
C2836       C  0.09456523  0.75144565  0.79541589    -0.06480
C2837       C  0.08074736  0.74393751  0.76692255    -0.33450
C2838       C  0.07851797  0.76612146  0.74276754     0.35600
H2839       H  0.11052908  0.82726936  0.78073522     0.15970
O2840       O  0.11516176  0.79241988  0.82802427    -0.60950
H2841       H  0.07251224  0.72061864  0.76300916     0.15980
O2842       O  0.06465600  0.75837263  0.71526641    -0.61050
H2843       H  0.06918835  0.73624078  0.71136410     0.42980
H2844       H  0.09678977  0.79852824  0.84027885     0.42940
C2845       C  0.20943438  0.89903056  0.73622021    -0.06130
C2846       C  0.21138793  0.87281743  0.75504311    -0.33560
C2847       C  0.23266428  0.87100946  0.77919633     0.35690
C2848       C  0.25247364  0.89612672  0.78600816    -0.06480
C2849       C  0.25150975  0.92206087  0.76647836    -0.33450
C2850       C  0.23027625  0.92359648  0.74171216     0.35600
H2851       H  0.19647222  0.85315351  0.75084560     0.15970
O2852       O  0.23370624  0.84429924  0.79611585    -0.60950
H2853       H  0.26657773  0.94153447  0.77091627     0.15980
O2854       O  0.22974797  0.94942703  0.72351593    -0.61050
H2855       H  0.21406182  0.96322180  0.73300900     0.42980
H2856       H  0.25011192  0.83156827  0.78635684     0.42940
C2857       C  0.20524825  0.60971274  0.52976515    -0.06130
C2858       C  0.23281267  0.61877877  0.51525641    -0.33560
C2859       C  0.23699329  0.61256968  0.48396824     0.35690
C2860       C  0.21368279  0.59679397  0.46808621    -0.06480
C2861       C  0.19165857  0.58010101  0.48463403    -0.33450
C2862       C  0.18521165  0.58911494  0.51467571     0.35600
H2863       H  0.24902579  0.63391967  0.52687878     0.15970
O2864       O  0.25978635  0.62767611  0.46813677    -0.60950
H2865       H  0.17408024  0.56725243  0.47229577     0.15980
O2866       O  0.15748982  0.58092603  0.52742033    -0.61050
H2867       H  0.14201541  0.59509025  0.51821151     0.42980
H2868       H  0.27516264  0.61148202  0.46290147     0.42940
C2869       C  0.15641038  0.63244738  0.73095779    -0.06130
C2870       C  0.17160373  0.60936651  0.74838974    -0.33560
C2871       C  0.18496978  0.61653828  0.77646453     0.35690
C2872       C  0.17927049  0.64589563  0.78828027    -0.06480
C2873       C  0.17372945  0.67024700  0.76771922    -0.33450
C2874       C  0.15763683  0.66320098  0.74087081     0.35600
H2875       H  0.17252586  0.58556927  0.74050475     0.15970
O2876       O  0.19554641  0.59314719  0.79499442    -0.60950
H2877       H  0.17216966  0.69371555  0.77652528     0.15980
O2878       O  0.14122271  0.68578879  0.72637721    -0.61050
H2879       H  0.12036059  0.68518950  0.73578440     0.42980
H2880       H  0.21535688  0.60064517  0.80371972     0.42940
C2881       C  0.12787601  0.71332029  0.66969512    -0.06130
C2882       C  0.15583456  0.72763171  0.67776856    -0.33560
C2883       C  0.16143570  0.75760619  0.66816885     0.35690
C2884       C  0.13874072  0.77267584  0.65095901    -0.06480
C2885       C  0.10917610  0.76002936  0.64821225    -0.33450
C2886       C  0.10321553  0.73080566  0.65906421     0.35600
H2887       H  0.17500584  0.71407845  0.68647295     0.15970
O2888       O  0.18913963  0.77154608  0.67459656    -0.60950
H2889       H  0.09060305  0.77248986  0.63770144     0.15980
O2890       O  0.07479875  0.71763727  0.65422245    -0.61050
H2891       H  0.07543768  0.70928893  0.63295167     0.42980
H2892       H  0.20454824  0.76092667  0.66134756     0.42940
C2893       C  0.37773726  0.71818651  0.85936842    -0.06130
C2894       C  0.36206077  0.72555870  0.88645325    -0.33560
C2895       C  0.36002816  0.75585482  0.89480518     0.35690
C2896       C  0.37067083  0.77797163  0.87393265    -0.06480
C2897       C  0.39069945  0.77081677  0.85014786    -0.33450
C2898       C  0.39547568  0.74038854  0.84355807     0.35600
H2899       H  0.35125193  0.70821957  0.90080325     0.15970
O2900       O  0.34623623  0.76388856  0.92219756    -0.60950
H2901       H  0.40128485  0.78845415  0.83597995     0.15980
O2902       O  0.41716430  0.73267446  0.82183167    -0.61050
H2903       H  0.43612890  0.72780370  0.83370075     0.42980
H2904       H  0.36342809  0.76584521  0.93719701     0.42940
C2905       C  0.29693943  0.66367298  0.87376110    -0.06130
C2906       C  0.28117032  0.65236192  0.89909791    -0.33560
C2907       C  0.25102512  0.64276210  0.89523101     0.35690
C2908       C  0.23494083  0.64911053  0.86786290    -0.06480
C2909       C  0.24895771  0.66701372  0.84509015    -0.33450
C2910       C  0.28024596  0.67437821  0.84796504     0.35600
H2911       H  0.29370209  0.64506462  0.91948930     0.15970
O2912       O  0.23687002  0.62736204  0.91864698    -0.60950
H2913       H  0.23581209  0.67517415  0.82545990     0.15980
O2914       O  0.29531120  0.68861459  0.82410632    -0.61050
H2915       H  0.29888967  0.67221873  0.80842868     0.42980
H2916       H  0.23300737  0.60657116  0.90972969     0.42940
C2917       C  0.29260640  0.59811514  0.75309284    -0.06130
C2918       C  0.29847231  0.61176757  0.72439538    -0.33560
C2919       C  0.27827561  0.60836172  0.69935232     0.35690
C2920       C  0.25036251  0.59146127  0.70206764    -0.06480
C2921       C  0.24497853  0.57618207  0.73023902    -0.33450
C2922       C  0.26606274  0.57900650  0.75539846     0.35600
H2923       H  0.31920945  0.62529944  0.72099646     0.15970
O2924       O  0.28622758  0.62186221  0.67185120    -0.60950
H2925       H  0.22403334  0.56293423  0.73319227     0.15980
O2926       O  0.25992641  0.56378175  0.78235083    -0.61050
H2927       H  0.26793670  0.54252711  0.77912866     0.42980
H2928       H  0.28336725  0.64441799  0.67505047     0.42940
C2929       C  0.37750855  0.78981304  0.53304991    -0.06130
C2930       C  0.35571975  0.77194937  0.51741329    -0.33560
C2931       C  0.35577988  0.77163613  0.48555931     0.35690
C2932       C  0.37832093  0.78880712  0.46988840    -0.06480
C2933       C  0.40231870  0.80334776  0.48554727    -0.33450
C2934       C  0.40214456  0.80372014  0.51743548     0.35600
H2935       H  0.33657409  0.76148433  0.52961764     0.15970
O2936       O  0.33125154  0.75867201  0.47018849    -0.60950
H2937       H  0.41979458  0.81618409  0.47312503     0.15980
O2938       O  0.42414434  0.82027268  0.53305507    -0.61050
H2939       H  0.44386499  0.80932177  0.52892779     0.42980
H2940       H  0.33724691  0.73683635  0.46654127     0.42940
C2941       C  0.22957496  0.86491222  0.64478527    -0.06130
C2942       C  0.24163210  0.89234272  0.63308338    -0.33560
C2943       C  0.26751995  0.90576402  0.64653067     0.35690
C2944       C  0.28545210  0.88770018  0.66625590    -0.06480
C2945       C  0.27124435  0.86344049  0.68206073    -0.33450
C2946       C  0.24351764  0.85140611  0.67084037     0.35600
H2947       H  0.23042161  0.90358831  0.61413687     0.15970
O2948       O  0.27936052  0.93241766  0.63443573    -0.60950
H2949       H  0.28406305  0.85049481  0.69914094     0.15980
O2950       O  0.23066443  0.82614179  0.68479010    -0.61050
H2951       H  0.24152512  0.80808669  0.67566800     0.42980
H2952       H  0.27008769  0.94929693  0.64691996     0.42940
C2953       C  0.35515492  0.85390675  0.73207447    -0.06130
C2954       C  0.33738140  0.83011869  0.74500255    -0.33560
C2955       C  0.34497277  0.81869149  0.77405051     0.35690
C2956       C  0.36945268  0.83234709  0.79039567    -0.06480
C2957       C  0.39056995  0.85037386  0.77466126    -0.33450
C2958       C  0.38055748  0.86553558  0.74833351     0.35600
H2959       H  0.31924605  0.81909321  0.73172347     0.15970
O2960       O  0.32550315  0.79835114  0.78837915    -0.60950
H2961       H  0.41090417  0.85840765  0.78668088     0.15980
O2962       O  0.39830565  0.88841245  0.73586530    -0.61050
H2963       H  0.38669817  0.90782295  0.73978267     0.42980
H2964       H  0.33720682  0.77866785  0.78955136     0.42940
C2965       C  0.23687762  0.71765857  0.60393018    -0.06130
C2966       C  0.26747255  0.71026069  0.61160308    -0.33560
C2967       C  0.28965983  0.73289524  0.61590645     0.35690
C2968       C  0.28228239  0.76423365  0.61150404    -0.06480
C2969       C  0.25228207  0.77194210  0.60126260    -0.33450
C2970       C  0.22938205  0.74874780  0.59776306     0.35600
H2971       H  0.27421773  0.68643111  0.61547685     0.15970
O2972       O  0.31898659  0.72380713  0.62362612    -0.60950
H2973       H  0.24637881  0.79587452  0.59692537     0.15980
O2974       O  0.20001940  0.75661621  0.58888790    -0.61050
H2975       H  0.19134472  0.76877368  0.60627239     0.42980
H2976       H  0.31824346  0.71939945  0.64606034     0.42940
C2977       C  0.40214622  0.72116147  0.67883357    -0.06130
C2978       C  0.41202434  0.72636041  0.70926753    -0.33560
C2979       C  0.41417546  0.70209306  0.73066929     0.35690
C2980       C  0.40708484  0.67123458  0.72207213    -0.06480
C2981       C  0.39906817  0.66574504  0.69102666    -0.33450
C2982       C  0.39667041  0.69015929  0.66961696     0.35600
H2983       H  0.41629780  0.74973105  0.71727204     0.15970
O2984       O  0.42086257  0.70948215  0.76064397    -0.60950
H2985       H  0.39336425  0.64254001  0.68348913     0.15980
O2986       O  0.38773146  0.68340094  0.64000386    -0.61050
H2987       H  0.40724485  0.68113155  0.62824970     0.42980
H2988       H  0.40069884  0.71568556  0.76958419     0.42940
C2989       C  0.71282370  0.90988256  0.97065428    -0.06130
C2990       C  0.74091936  0.89842022  0.98259979    -0.33560
C2991       C  0.74531440  0.89733811  0.01437780     0.35690
C2992       C  0.72133313  0.90777442  0.03323337    -0.06480
C2993       C  0.69928548  0.92823507  0.02095803    -0.33450
C2994       C  0.69383357  0.92814067  0.98938402     0.35600
H2995       H  0.75695444  0.88575890  0.96808383     0.15970
O2996       O  0.76844364  0.87920332  0.02615110    -0.60950
H2997       H  0.68095096  0.93706534  0.03538937     0.15980
O2998       O  0.66720589  0.94106390  0.97805037    -0.61050
H2999       H  0.66817956  0.96328410  0.98373232     0.42980
H3000       H  0.78382000  0.89395175  0.03456734     0.42940
C3001       C  0.90195309  0.69487948  0.97630816    -0.06130
C3002       C  0.90091027  0.72352827  0.99151729    -0.33560
C3003       C  0.89940308  0.72427466  0.02344473     0.35690
C3004       C  0.90001070  0.69609753  0.03947252    -0.06480
C3005       C  0.91012556  0.66914636  0.02448045    -0.33450
C3006       C  0.91088793  0.66831335  0.99251559     0.35600
H3007       H  0.89638360  0.74468714  0.97900030     0.15970
O3008       O  0.89337884  0.75182022  0.03814195    -0.60950
H3009       H  0.91328331  0.64777472  0.03705369     0.15980
O3010       O  0.91681348  0.64090130  0.97751795    -0.61050
H3011       H  0.89845329  0.62772714  0.98115494     0.42980
H3012       H  0.87108245  0.75587623  0.03473037     0.42940
C3013       C  0.96712927  0.68025313  0.89930719    -0.06130
C3014       C  0.98054888  0.66416219  0.87485991    -0.33560
C3015       C  0.01129255  0.66652082  0.86935790     0.35690
C3016       C  0.02926754  0.68421443  0.88939401    -0.06480
C3017       C  0.01654876  0.69965883  0.91488485    -0.33450
C3018       C  0.98488792  0.69784049  0.91986099     0.35600
H3019       H  0.96690668  0.65183738  0.85809693     0.15970
O3020       O  0.02308012  0.65414888  0.84258684    -0.60950
H3021       H  0.03089488  0.71338277  0.93015769     0.15980
O3022       O  0.97147078  0.71386744  0.94371350    -0.61050
H3023       H  0.97146946  0.69930756  0.96132205     0.42980
H3024       H  0.02217539  0.63141057  0.84528909     0.42940
C3025       C  0.78650991  0.74505188  0.91050889    -0.06130
C3026       C  0.77101100  0.75202044  0.88301038    -0.33560
C3027       C  0.74894479  0.77565646  0.88164407     0.35690
C3028       C  0.74130012  0.79315113  0.90826211    -0.06480
C3029       C  0.75503275  0.78467942  0.93651053    -0.33450
C3030       C  0.77757883  0.76083853  0.93772135     0.35600
H3031       H  0.77716187  0.73995887  0.86189543     0.15970
O3032       O  0.73491729  0.78160790  0.85386978    -0.60950
H3033       H  0.74972004  0.79772042  0.95723594     0.15980
O3034       O  0.79253211  0.75507312  0.96497196    -0.61050
H3035       H  0.78052043  0.73833379  0.97485307     0.42980
H3036       H  0.75045353  0.79297999  0.84155470     0.42940
C3037       C  0.97270763  0.91363297  0.70328263    -0.06130
C3038       C  0.98525166  0.92369686  0.67528143    -0.33560
C3039       C  0.01634071  0.91871803  0.66956219     0.35690
C3040       C  0.03495832  0.90697588  0.69325817    -0.06480
C3041       C  0.02382517  0.90565298  0.72352466    -0.33450
C3042       C  0.99227658  0.90883913  0.72876081     0.35600
H3043       H  0.97033830  0.92942715  0.65602624     0.15970
O3044       O  0.02749806  0.92178975  0.64008532    -0.60950
H3045       H  0.03849264  0.89745672  0.74204808     0.15980
O3046       O  0.98064491  0.90130456  0.75716055    -0.61050
H3047       H  0.97541513  0.92136369  0.76702397     0.42980
H3048       H  0.01986324  0.90345367  0.62857154     0.42940
C3049       C  0.91873950  0.79829632  0.76037115    -0.06130
C3050       C  0.91555337  0.80498701  0.79200715    -0.33560
C3051       C  0.91442596  0.78156123  0.81437666     0.35690
C3052       C  0.91625300  0.74995940  0.80594942    -0.06480
C3053       C  0.92155188  0.74302554  0.77454465    -0.33450
C3054       C  0.92265179  0.76682669  0.75194406     0.35600
H3055       H  0.91242947  0.82873971  0.79944925     0.15970
O3056       O  0.90957820  0.78990703  0.84456863    -0.60950
H3057       H  0.92254731  0.71909670  0.76713822     0.15980
O3058       O  0.92502345  0.75875425  0.72151806    -0.61050
H3059       H  0.90341276  0.75725732  0.71413370     0.42980
H3060       H  0.93038542  0.79018979  0.85411326     0.42940
C3061       C  0.78850453  0.90359802  0.74489645    -0.06130
C3062       C  0.77557288  0.93239165  0.75360287    -0.33560
C3063       C  0.75103720  0.93414075  0.77539224     0.35690
C3064       C  0.73836551  0.90681625  0.78782573    -0.06480
C3065       C  0.74942529  0.87839495  0.77641426    -0.33450
C3066       C  0.77456879  0.87650125  0.75615540     0.35600
H3067       H  0.78594528  0.95354997  0.74533809     0.15970
O3068       O  0.74113008  0.96247851  0.78567300    -0.60950
H3069       H  0.74001108  0.85699106  0.78526974     0.15980
O3070       O  0.78735049  0.84807296  0.74947706    -0.61050
H3071       H  0.77038539  0.83270750  0.74929186     0.42980
H3072       H  0.75437856  0.96736522  0.80371398     0.42940
C3073       C  0.52876371  0.57397043  0.80502455    -0.06130
C3074       C  0.51329367  0.56593203  0.83218468    -0.33560
C3075       C  0.48141254  0.56237475  0.83136595     0.35690
C3076       C  0.46602883  0.56810920  0.80342004    -0.06480
C3077       C  0.48224317  0.56559918  0.77569358    -0.33450
C3078       C  0.51413920  0.56896792  0.77630122     0.35600
H3079       H  0.52484748  0.56689450  0.85434861     0.15970
O3080       O  0.46512006  0.55973546  0.85842025    -0.60950
H3081       H  0.47033663  0.56778889  0.75380275     0.15980
O3082       O  0.52956136  0.57277167  0.74896229    -0.61050
H3083       H  0.53517592  0.55157586  0.74220749     0.42980
H3084       H  0.46798185  0.57958860  0.86962151     0.42940
C3085       C  0.71392942  0.64344869  0.86874164    -0.06130
C3086       C  0.73049713  0.61946072  0.88258795    -0.33560
C3087       C  0.75933638  0.61181525  0.87153205     0.35690
C3088       C  0.77484146  0.63286286  0.85303544    -0.06480
C3089       C  0.75930575  0.65835076  0.84060184    -0.33450
C3090       C  0.72854290  0.66349541  0.84808296     0.35600
H3091       H  0.71896339  0.60306649  0.89735417     0.15970
O3092       O  0.77362739  0.58541144  0.88153236    -0.60950
H3093       H  0.77162491  0.67517954  0.82685117     0.15980
O3094       O  0.71217974  0.68610195  0.83314686    -0.61050
H3095       H  0.72009011  0.70591828  0.84158602     0.42980
H3096       H  0.76969479  0.56983529  0.86514591     0.42940
C3097       C  0.64111646  0.71630822  0.84746998    -0.06130
C3098       C  0.66261183  0.72537063  0.86927097    -0.33560
C3099       C  0.66633171  0.75629472  0.87527906     0.35690
C3100       C  0.65042297  0.77830804  0.85703781    -0.06480
C3101       C  0.63174871  0.76916099  0.83287677    -0.33450
C3102       C  0.62567110  0.73827019  0.82866952     0.35600
H3103       H  0.67391134  0.70863221  0.88403750     0.15970
O3104       O  0.68267700  0.76432191  0.90114789    -0.60950
H3105       H  0.61861663  0.78597659  0.81979685     0.15980
O3106       O  0.60092460  0.73019015  0.81037910    -0.61050
H3107       H  0.60022235  0.74469124  0.79273029     0.42980
H3108       H  0.66816522  0.76173422  0.91865289     0.42940
C3109       C  0.78224954  0.59476391  0.52944855    -0.06130
C3110       C  0.80153877  0.57408269  0.51416787    -0.33560
C3111       C  0.79738275  0.56910985  0.48289827     0.35690
C3112       C  0.77556832  0.58747224  0.46724064    -0.06480
C3113       C  0.75102462  0.60030491  0.48365382    -0.33450
C3114       C  0.75471671  0.60502982  0.51518460     0.35600
H3115       H  0.82182129  0.56472375  0.52542298     0.15970
O3116       O  0.82022829  0.55405958  0.46702756    -0.60950
H3117       H  0.73299392  0.61289977  0.47170667     0.15980
O3118       O  0.73384432  0.62340357  0.53050588    -0.61050
H3119       H  0.74049275  0.64490269  0.52640318     0.42980
H3120       H  0.81876302  0.53214380  0.47350817     0.42940
C3121       C  0.83649753  0.64805037  0.72160365    -0.06130
C3122       C  0.81316660  0.63518482  0.74013850    -0.33560
C3123       C  0.81462233  0.63939652  0.77161731     0.35690
C3124       C  0.83660855  0.65996572  0.78282714    -0.06480
C3125       C  0.85004680  0.68168318  0.76279541    -0.33450
C3126       C  0.85284501  0.67382573  0.73200717     0.35600
H3127       H  0.79775417  0.61769419  0.73132721     0.15970
O3128       O  0.79846526  0.62014791  0.79070571    -0.60950
H3129       H  0.86478812  0.69996865  0.77153370     0.15980
O3130       O  0.87533626  0.68742505  0.71447944    -0.61050
H3131       H  0.87143017  0.70998818  0.71582886     0.42980
H3132       H  0.80934371  0.59995981  0.78980774     0.42940
C3133       C  0.85959788  0.71199430  0.65363329    -0.06130
C3134       C  0.88955237  0.72252903  0.65230507    -0.33560
C3135       C  0.89440304  0.75346623  0.64843866     0.35690
C3136       C  0.86892765  0.77350991  0.64533496    -0.06480
C3137       C  0.83889909  0.76313696  0.64959305    -0.33450
C3138       C  0.83418450  0.73211290  0.65475852     0.35600
H3139       H  0.90900143  0.70667854  0.65153437     0.15970
O3140       O  0.92400828  0.76456757  0.64803332    -0.60950
H3141       H  0.81957399  0.77893286  0.65006020     0.15980
O3142       O  0.80473929  0.72105965  0.65790679    -0.61050
H3143       H  0.80252170  0.71632000  0.68016030     0.42980
H3144       H  0.93547196  0.75466302  0.66514076     0.42940
C3145       C  0.75013247  0.57304784  0.70308429    -0.06130
C3146       C  0.75788521  0.56846276  0.73446881    -0.33560
C3147       C  0.73483876  0.56906200  0.75797684     0.35690
C3148       C  0.70337574  0.57365575  0.75025850    -0.06480
C3149       C  0.69584343  0.57533725  0.71868466    -0.33450
C3150       C  0.71851623  0.57510741  0.69557723     0.35600
H3151       H  0.78192193  0.56659996  0.74106171     0.15970
O3152       O  0.74361721  0.56706734  0.78830658    -0.60950
H3153       H  0.67199423  0.57845511  0.71177474     0.15980
O3154       O  0.70949519  0.57908451  0.66549957    -0.61050
H3155       H  0.70896579  0.55797668  0.65648993     0.42980
H3156       H  0.74362442  0.58864669  0.79614426     0.42940
C3157       C  0.52453814  0.79927879  0.59887036    -0.06130
C3158       C  0.51095166  0.82641672  0.58766026    -0.33560
C3159       C  0.47925664  0.82755990  0.58347357     0.35690
C3160       C  0.46177067  0.80130037  0.59062636    -0.06480
C3161       C  0.47615833  0.77246110  0.59296012    -0.33450
C3162       C  0.50785021  0.77131972  0.59797087     0.35600
H3163       H  0.52400082  0.84771470  0.58622281     0.15970
O3164       O  0.46515624  0.85560577  0.57894903    -0.60950
H3165       H  0.46263914  0.75182090  0.59708582     0.15980
O3166       O  0.52124032  0.74368640  0.60590435    -0.61050
H3167       H  0.51596573  0.74054874  0.62794810     0.42980
H3168       H  0.46852223  0.86043891  0.55686777     0.42940
C3169       C  0.58469468  0.79839105  0.53330382    -0.06130
C3170       C  0.57661413  0.82529445  0.51734614    -0.33560
C3171       C  0.58112102  0.82648760  0.48568738     0.35690
C3172       C  0.59361193  0.80046994  0.47059772    -0.06480
C3173       C  0.59303468  0.77168837  0.48519741    -0.33450
C3174       C  0.58851112  0.77043420  0.51687273     0.35600
H3175       H  0.57140745  0.84651924  0.52969193     0.15970
O3176       O  0.57743379  0.85412551  0.47076518    -0.60950
H3177       H  0.60022277  0.75087003  0.47316777     0.15980
O3178       O  0.59233338  0.74273220  0.53178279    -0.61050
H3179       H  0.61480168  0.73824023  0.53099627     0.42980
H3180       H  0.55683311  0.85280147  0.46087572     0.42940
C3181       C  0.65657657  0.86476009  0.71777677    -0.06130
C3182       C  0.66579894  0.83949169  0.73582887    -0.33560
C3183       C  0.65634746  0.83758568  0.76648904     0.35690
C3184       C  0.63766979  0.86110476  0.77866143    -0.06480
C3185       C  0.63026984  0.88700083  0.76059258    -0.33450
C3186       C  0.64213010  0.89013255  0.73135722     0.35600
H3187       H  0.67714586  0.81979296  0.72520475     0.15970
O3188       O  0.66664502  0.81384906  0.78469191    -0.60950
H3189       H  0.61832184  0.90666014  0.77056468     0.15980
O3190       O  0.63443473  0.91569273  0.71432942    -0.61050
H3191       H  0.65303865  0.92899895  0.71488804     0.42980
H3192       H  0.65662847  0.79497594  0.77634800     0.42940
C3193       C  0.72416806  0.84991755  0.63969472    -0.06130
C3194       C  0.73431805  0.83682349  0.66730282    -0.33560
C3195       C  0.76453358  0.82592653  0.66922347     0.35690
C3196       C  0.78464297  0.83035821  0.64429176    -0.06480
C3197       C  0.77308168  0.83796901  0.61556598    -0.33450
C3198       C  0.74335695  0.84895802  0.61346085     0.35600
H3199       H  0.71861006  0.83366833  0.68645563     0.15970
O3200       O  0.77524017  0.81334470  0.69606590    -0.60950
H3201       H  0.78822927  0.84023227  0.59576684     0.15980
O3202       O  0.73247663  0.85753005  0.58517528    -0.61050
H3203       H  0.72879337  0.83795286  0.57372876     0.42980
H3204       H  0.77307923  0.79068809  0.69325645     0.42940
C3205       C  0.59071022  0.74906619  0.71355181    -0.06130
C3206       C  0.61799387  0.73654133  0.72578978    -0.33560
C3207       C  0.61775829  0.71015981  0.74435128     0.35690
C3208       C  0.58967259  0.69560215  0.75231637    -0.06480
C3209       C  0.56192216  0.70937375  0.74212936    -0.33450
C3210       C  0.56233255  0.73575258  0.72263064     0.35600
H3211       H  0.64010235  0.74643538  0.71957375     0.15970
O3212       O  0.64536323  0.69925793  0.75550400    -0.60950
H3213       H  0.54005463  0.69879236  0.74790935     0.15980
O3214       O  0.53514829  0.74659048  0.71061167    -0.61050
H3215       H  0.52826357  0.76294656  0.72517209     0.42980
H3216       H  0.65503017  0.68802012  0.73799285     0.42940
C3217       C  0.70384249  0.75224042  0.59677651    -0.06130
C3218       C  0.71797624  0.74181239  0.56938833    -0.33560
C3219       C  0.74192981  0.71924348  0.57029995     0.35690
C3220       C  0.75149999  0.70652795  0.59885623    -0.06480
C3221       C  0.73904831  0.71914336  0.62596161    -0.33450
C3222       C  0.71639679  0.74209090  0.62517655     0.35600
H3223       H  0.70931950  0.74965435  0.54731969     0.15970
O3224       O  0.75477216  0.70879335  0.54325767    -0.60950
H3225       H  0.74618245  0.71041079  0.64824054     0.15980
O3226       O  0.70532850  0.75321783  0.65275323    -0.61050
H3227       H  0.71769406  0.77199383  0.65712101     0.42980
H3228       H  0.73756014  0.69956828  0.53128963     0.42940
C3229       C  0.29706409  0.08228701  0.97193010    -0.06130
C3230       C  0.32305363  0.06802914  0.98490645    -0.33560
C3231       C  0.32515289  0.06543841  0.01671542     0.35690
C3232       C  0.30097428  0.07714246  0.03485122    -0.06480
C3233       C  0.27204292  0.08242807  0.02159877    -0.33450
C3234       C  0.27000680  0.08571092  0.98971841     0.35600
H3235       H  0.34343865  0.06346357  0.97113200     0.15970
O3236       O  0.35288890  0.05760789  0.02984441    -0.60950
H3237       H  0.25280306  0.09001703  0.03573383     0.15980
O3238       O  0.24314925  0.09683001  0.97708425    -0.61050
H3239       H  0.24289410  0.11926089  0.98198179     0.42980
H3240       H  0.35309912  0.03469167  0.03011440     0.42940
C3241       C  0.30469603  0.03122844  0.90633345    -0.06130
C3242       C  0.27589355  0.01655914  0.90734092    -0.33560
C3243       C  0.27476232  0.98466101  0.90504709     0.35690
C3244       C  0.30276569  0.96847592  0.90203495    -0.06480
C3245       C  0.33038645  0.98249650  0.91132931    -0.33450
C3246       C  0.33157009  0.01442898  0.91333243     0.35600
H3247       H  0.25464437  0.02954411  0.90470482     0.15970
O3248       O  0.24680350  0.97056237  0.90036646    -0.60950
H3249       H  0.35178591  0.96950761  0.91223485     0.15980
O3250       O  0.35946613  0.02884738  0.91775923    -0.61050
H3251       H  0.37146145  0.02514569  0.89858566     0.42980
H3252       H  0.24192803  0.96041068  0.92023722     0.42940
C3253       C  0.10353866  0.02797304  0.70924469    -0.06130
C3254       C  0.08307538  0.01287158  0.68933377    -0.33560
C3255       C  0.08494191  0.98101085  0.68578424     0.35690
C3256       C  0.10608779  0.96432145  0.70368927    -0.06480
C3257       C  0.12187798  0.97883405  0.72792700    -0.33450
C3258       C  0.12073988  0.01096245  0.73076737     0.35600
H3259       H  0.06989927  0.02597760  0.67263555     0.15970
O3260       O  0.06941389  0.96705635  0.66194369    -0.60950
H3261       H  0.13836506  0.96594376  0.74163747     0.15980
O3262       O  0.14092796  0.02557011  0.75036622    -0.61050
H3263       H  0.12798219  0.03358462  0.76749322     0.42980
H3264       H  0.08226393  0.97054778  0.64334936     0.42940
C3265       C  0.20627762  0.09282298  0.74395491    -0.06130
C3266       C  0.23658795  0.08095301  0.74073443    -0.33560
C3267       C  0.25844677  0.08271450  0.76522359     0.35690
C3268       C  0.25039242  0.09647030  0.79383478    -0.06480
C3269       C  0.21992439  0.10751841  0.79703105    -0.33450
C3270       C  0.19823371  0.10567269  0.77295826     0.35600
H3271       H  0.24370151  0.07101717  0.71887951     0.15970
O3272       O  0.28774656  0.07163524  0.76055139    -0.60950
H3273       H  0.21260809  0.11792841  0.81861090     0.15980
O3274       O  0.16913321  0.11708916  0.77819764    -0.61050
H3275       H  0.15681437  0.09907285  0.78502576     0.42980
H3276       H  0.29953948  0.08934495  0.75218461     0.42940
C3277       C  0.08130273  0.30062542  0.03497545    -0.06130
C3278       C  0.08196848  0.27128992  0.02142555    -0.33560
C3279       C  0.08241865  0.26925216  0.98942610     0.35690
C3280       C  0.08230520  0.29702006  0.97251504    -0.06480
C3281       C  0.07032317  0.32385506  0.98616020    -0.33450
C3282       C  0.07036731  0.32599300  0.01810614     0.35600
H3283       H  0.08855112  0.25123004  0.03482473     0.15970
O3284       O  0.08982833  0.24152515  0.97583541    -0.60950
H3285       H  0.06725497  0.34476081  0.97280697     0.15980
O3286       O  0.06571914  0.35414581  0.03215841    -0.61050
H3287       H  0.08407815  0.36681901  0.02707060     0.42980
H3288       H  0.07056583  0.23456254  0.96559807     0.42940
C3289       C  0.25156906  0.20195030  0.92625923    -0.06130
C3290       C  0.26008837  0.23332025  0.92462513    -0.33560
C3291       C  0.23733497  0.25690251  0.92462745     0.35690
C3292       C  0.20572742  0.24914436  0.92632892    -0.06480
C3293       C  0.19773886  0.21800131  0.93042510    -0.33450
C3294       C  0.22017687  0.19468374  0.93046001     0.35600
H3295       H  0.28402442  0.23939296  0.92078087     0.15970
O3296       O  0.24604502  0.28702733  0.92039823    -0.60950
H3297       H  0.17362110  0.21145195  0.93153951     0.15980
O3298       O  0.21088507  0.16442302  0.93184138    -0.61050
H3299       H  0.20978082  0.15965619  0.95416282     0.42980
H3300       H  0.24826504  0.28933822  0.89777270     0.42940
C3301       C  0.09350753  0.24468152  0.80038854    -0.06130
C3302       C  0.09898339  0.21312847  0.80617053    -0.33560
C3303       C  0.09655946  0.19041201  0.78291050     0.35690
C3304       C  0.08894784  0.19840962  0.75218011    -0.06480
C3305       C  0.08213435  0.22988142  0.74641117    -0.33450
C3306       C  0.08418097  0.25277103  0.77013033     0.35600
H3307       H  0.10577235  0.20587690  0.82909290     0.15970
O3308       O  0.10277776  0.16029660  0.79052096    -0.60950
H3309       H  0.07667587  0.23706604  0.72313162     0.15980
O3310       O  0.07924263  0.28316874  0.76283438    -0.61050
H3311       H  0.05688101  0.28665501  0.76628358     0.42980
H3312       H  0.08236402  0.15090776  0.79479293     0.42940
C3313       C  0.39275806  0.45700849  0.80041889    -0.06130
C3314       C  0.36493676  0.46908999  0.81131223    -0.33560
C3315       C  0.35690917  0.49883688  0.80552319     0.35690
C3316       C  0.37842777  0.51790838  0.79153110    -0.06480
C3317       C  0.40623853  0.50640227  0.77950839    -0.33450
C3318       C  0.41318893  0.47514634  0.78328940     0.35600
H3319       H  0.34884893  0.45553085  0.82418415     0.15970
O3320       O  0.32938890  0.51009585  0.81670073    -0.60950
H3321       H  0.42289074  0.52172820  0.76896602     0.15980
O3322       O  0.43999829  0.46297293  0.77157594    -0.61050
H3323       H  0.45592142  0.46718157  0.78749598     0.42980
H3324       H  0.31491928  0.50909957  0.79898817     0.42940
C3325       C  0.36235656  0.22229406  0.87004944    -0.06130
C3326       C  0.36528665  0.23934967  0.89762127    -0.33560
C3327       C  0.34847451  0.26627234  0.90196563     0.35690
C3328       C  0.33559700  0.28014076  0.87620262    -0.06480
C3329       C  0.32850108  0.26192561  0.85031815    -0.33450
C3330       C  0.34367290  0.23380889  0.84629312     0.35600
H3331       H  0.37628122  0.22901229  0.91748744     0.15970
O3332       O  0.35053723  0.28212864  0.92935984    -0.60950
H3333       H  0.31659178  0.27207219  0.83081750     0.15980
O3334       O  0.33846191  0.21679593  0.82015516    -0.61050
H3335       H  0.35775628  0.21870395  0.80801642     0.42980
H3336       H  0.33203145  0.27585369  0.94120991     0.42940
C3337       C  0.27501663  0.36154645  0.86655760    -0.06130
C3338       C  0.26095555  0.33577053  0.85347100    -0.33560
C3339       C  0.22989338  0.33704793  0.84679811     0.35690
C3340       C  0.21337781  0.36384073  0.85486681    -0.06480
C3341       C  0.22795373  0.39071913  0.86407154    -0.33450
C3342       C  0.25884290  0.38948637  0.87076367     0.35600
H3343       H  0.27420248  0.31527936  0.84757571     0.15970
O3344       O  0.21477939  0.31075151  0.83741318    -0.60950
H3345       H  0.21486451  0.41130322  0.87007963     0.15980
O3346       O  0.27344408  0.41593808  0.88029978    -0.61050
H3347       H  0.27519813  0.42899081  0.86161976     0.42980
H3348       H  0.21966615  0.30842511  0.81518254     0.42940
C3349       C  0.21250667  0.47483516  0.58945364    -0.06130
C3350       C  0.18786274  0.48745876  0.57286791    -0.33560
C3351       C  0.18471236  0.51924079  0.57106016     0.35690
C3352       C  0.20773883  0.53794094  0.58431996    -0.06480
C3353       C  0.23651895  0.52474653  0.59178123    -0.33450
C3354       C  0.23875980  0.49280562  0.59532783     0.35600
H3355       H  0.16801924  0.47337817  0.56711393     0.15970
O3356       O  0.15661550  0.53121499  0.56266415    -0.60950
H3357       H  0.25523218  0.53894594  0.60043184     0.15980
O3358       O  0.26433511  0.48033916  0.60928045    -0.61050
H3359       H  0.26140194  0.48396896  0.63171307     0.42980
H3360       H  0.15263594  0.52340851  0.54146040     0.42940
C3361       C  0.18842915  0.41965963  0.53319059    -0.06130
C3362       C  0.21632473  0.41801960  0.51699544    -0.33560
C3363       C  0.21546155  0.41219032  0.48555837     0.35690
C3364       C  0.18645997  0.40912622  0.47120248    -0.06480
C3365       C  0.15988184  0.42000343  0.48583463    -0.33450
C3366       C  0.16094846  0.42636200  0.51717310     0.35600
H3367       H  0.23807554  0.41528357  0.52906380     0.15970
O3368       O  0.24227407  0.40415912  0.47068621    -0.60950
H3369       H  0.13788940  0.42035982  0.47389381     0.15980
O3370       O  0.13429665  0.43413961  0.53257306    -0.61050
H3371       H  0.12041206  0.41600816  0.53062642     0.42980
H3372       H  0.24954629  0.42348553  0.46088742     0.42940
C3373       C  0.14745885  0.36045130  0.72235690    -0.06130
C3374       C  0.17451582  0.36497105  0.73944362    -0.33560
C3375       C  0.17289894  0.36534676  0.77120099     0.35690
C3376       C  0.14404321  0.36144073  0.78460702    -0.06480
C3377       C  0.11726539  0.35658217  0.76712155    -0.33450
C3378       C  0.11897653  0.35532836  0.73586712     0.35600
H3379       H  0.19624558  0.36984975  0.72810324     0.15970
O3380       O  0.19878381  0.37041894  0.78871131    -0.60950
H3381       H  0.09509893  0.35226392  0.77772776     0.15980
O3382       O  0.09244064  0.35248213  0.71871762    -0.61050
H3383       H  0.08962704  0.32994579  0.71563421     0.42980
H3384       H  0.21380764  0.35420008  0.78256076     0.42940
C3385       C  0.15715291  0.21410863  0.65144579    -0.06130
C3386       C  0.14849414  0.23227662  0.67708884    -0.33560
C3387       C  0.15017501  0.26428561  0.67523635     0.35690
C3388       C  0.16116287  0.27726200  0.64789780    -0.06480
C3389       C  0.17499426  0.25843893  0.62521612    -0.33450
C3390       C  0.17371447  0.22687735  0.62717327     0.35600
H3391       H  0.13680210  0.22216479  0.69668120     0.15970
O3392       O  0.13818420  0.28230494  0.69846101    -0.60950
H3393       H  0.18346242  0.26775572  0.60378517     0.15980
O3394       O  0.18405144  0.20910391  0.60289787    -0.61050
H3395       H  0.20682424  0.21138849  0.60279155     0.42980
H3396       H  0.11548843  0.28171592  0.69548241     0.42940
C3397       C  0.30034316  0.40443184  0.75065912    -0.06130
C3398       C  0.30731787  0.39794917  0.71966951    -0.33560
C3399       C  0.28491192  0.39978014  0.69655731     0.35690
C3400       C  0.25422622  0.40808538  0.70376173    -0.06480
C3401       C  0.24742370  0.41679008  0.73446678    -0.33450
C3402       C  0.27023971  0.41480574  0.75792499     0.35600
H3403       H  0.33028397  0.39015817  0.71339777     0.15970
O3404       O  0.29314787  0.39220823  0.66689634    -0.60950
H3405       H  0.22408403  0.42338946  0.74060355     0.15980
O3406       O  0.26239190  0.42134063  0.78790085    -0.61050
H3407       H  0.25689737  0.40114629  0.79711429     0.42980
H3408       H  0.29756861  0.41220801  0.65673585     0.42940
C3409       C  0.39752077  0.19717847  0.52728221    -0.06130
C3410       C  0.39335280  0.22461468  0.51063967    -0.33560
C3411       C  0.39721306  0.22416370  0.47885373     0.35690
C3412       C  0.40470677  0.19596445  0.46468980    -0.06480
C3413       C  0.41705251  0.17176832  0.48203165    -0.33450
C3414       C  0.41332903  0.17216609  0.51378645     0.35600
H3415       H  0.38265314  0.24469031  0.52122000     0.15970
O3416       O  0.38667264  0.24865929  0.46181449    -0.60950
H3417       H  0.42425514  0.15047097  0.47090181     0.15980
O3418       O  0.42157265  0.14671882  0.53076931    -0.61050
H3419       H  0.40647265  0.13037977  0.52523439     0.42980
H3420       H  0.40551390  0.25874455  0.45371002     0.42940
C3421       C  0.35511039  0.13326640  0.72438440    -0.06130
C3422       C  0.38162018  0.12554641  0.74103745    -0.33560
C3423       C  0.38783052  0.13985554  0.76904943     0.35690
C3424       C  0.36470728  0.15743762  0.78318123    -0.06480
C3425       C  0.33893166  0.16662918  0.76617815    -0.33450
C3426       C  0.33354724  0.15370953  0.73741853     0.35600
H3427       H  0.39912758  0.11118936  0.73058264     0.15970
O3428       O  0.41440962  0.13266909  0.78463473    -0.60950
H3429       H  0.32057094  0.17979330  0.77702279     0.15980
O3430       O  0.30761895  0.16211976  0.72173942    -0.61050
H3431       H  0.29081870  0.14953878  0.73082946     0.42980
H3432       H  0.42947731  0.14869913  0.77843203     0.42940
C3433       C  0.28451606  0.12398754  0.66127824    -0.06130
C3434       C  0.26931793  0.15153501  0.66928492    -0.33560
C3435       C  0.23870952  0.15500652  0.66163240     0.35690
C3436       C  0.22400570  0.13064594  0.64657709    -0.06480
C3437       C  0.23757164  0.10128371  0.64518577    -0.33450
C3438       C  0.26783355  0.09746941  0.65421256     0.35600
H3439       H  0.28223411  0.17242022  0.67411406     0.15970
O3440       O  0.22394595  0.18258747  0.66704519    -0.60950
H3441       H  0.22502572  0.08148839  0.63697941     0.15980
O3442       O  0.28246055  0.06983671  0.64873176    -0.61050
H3443       H  0.28474492  0.06021465  0.66932433     0.42980
H3444       H  0.23091707  0.19647655  0.65034928     0.42940
C3445       C  0.27888413  0.24174540  0.59200217    -0.06130
C3446       C  0.26932726  0.25474261  0.56349701    -0.33560
C3447       C  0.24810506  0.28026309  0.56222593     0.35690
C3448       C  0.23624101  0.29366938  0.58970492    -0.06480
C3449       C  0.24488461  0.27932959  0.61766224    -0.33450
C3450       C  0.26536289  0.25413408  0.61897285     0.35600
H3451       H  0.27962141  0.24634236  0.54229075     0.15970
O3452       O  0.24118912  0.29322480  0.53428557    -0.60950
H3453       H  0.23603317  0.28820459  0.63935352     0.15980
O3454       O  0.27264023  0.24205450  0.64730836    -0.61050
H3455       H  0.28701344  0.25710210  0.65693543     0.42980
H3456       H  0.22235545  0.28234247  0.52713218     0.42940
C3457       C  0.39888116  0.23299440  0.70725479    -0.06130
C3458       C  0.37111987  0.23916903  0.72273207    -0.33560
C3459       C  0.37046359  0.25752744  0.74929006     0.35690
C3460       C  0.39799877  0.27044915  0.76088703    -0.06480
C3461       C  0.42628866  0.26170036  0.74739101    -0.33450
C3462       C  0.42684643  0.24295946  0.72061535     0.35600
H3463       H  0.34941902  0.23105503  0.71322373     0.15970
O3464       O  0.34243565  0.26578054  0.76177769    -0.60950
H3465       H  0.44764590  0.27162816  0.75583131     0.15980
O3466       O  0.45447364  0.23659102  0.70650478    -0.61050
H3467       H  0.45771214  0.25372244  0.69173821     0.42980
H3468       H  0.33157940  0.24620065  0.76645813     0.42940
C3469       C  0.89895536  0.28492606  0.97300404    -0.06130
C3470       C  0.91944092  0.30487366  0.98774441    -0.33560
C3471       C  0.92386172  0.30235859  0.01928271     0.35690
C3472       C  0.90585113  0.28108415  0.03574198    -0.06480
C3473       C  0.89219511  0.25635011  0.02022384    -0.33450
C3474       C  0.88805606  0.25839836  0.98846302     0.35600
H3475       H  0.92915813  0.32445133  0.97563195     0.15970
O3476       O  0.93884500  0.32573568  0.03443959    -0.60950
H3477       H  0.87924922  0.23916698  0.03292090     0.15980
O3478       O  0.86964929  0.23702574  0.97390259    -0.61050
H3479       H  0.84813898  0.24405187  0.97758765     0.42980
H3480       H  0.96043838  0.32481661  0.02686370     0.42940
C3481       C  0.96543452  0.30476926  0.89412938    -0.06130
C3482       C  0.98061033  0.31706416  0.86882730    -0.33560
C3483       C  0.01196248  0.31688782  0.86790466     0.35690
C3484       C  0.02819002  0.30431086  0.89273848    -0.06480
C3485       C  0.01326472  0.29032807  0.91761774    -0.33450
C3486       C  0.98122429  0.29027632  0.91823696     0.35600
H3487       H  0.96808429  0.32664939  0.84942070     0.15970
O3488       O  0.02664447  0.32749479  0.84197265    -0.60950
H3489       H  0.02629810  0.27985337  0.93618824     0.15980
O3490       O  0.96579840  0.27691339  0.94229600    -0.61050
H3491       H  0.96096806  0.25563630  0.93521230     0.42980
H3492       H  0.02027904  0.34943498  0.83983250     0.42940
C3493       C  0.70047387  0.10989312  0.96620570    -0.06130
C3494       C  0.69356561  0.13683488  0.98244450    -0.33560
C3495       C  0.69157501  0.13622159  0.01380305     0.35690
C3496       C  0.69849013  0.10875820  0.02915644    -0.06480
C3497       C  0.71023343  0.08297362  0.01347759    -0.33450
C3498       C  0.71145433  0.08353907  0.98138819     0.35600
H3499       H  0.68687135  0.15789281  0.97069855     0.15970
O3500       O  0.68270403  0.16251217  0.02929642    -0.60950
H3501       H  0.71744930  0.06252710  0.02591865     0.15980
O3502       O  0.72242246  0.05845826  0.96556833    -0.61050
H3503       H  0.74430113  0.06335278  0.96102371     0.42980
H3504       H  0.66200909  0.16798253  0.02111556     0.42940
C3505       C  0.71246168  0.03658808  0.90288223    -0.06130
C3506       C  0.73914091  0.02039074  0.89496359    -0.33560
C3507       C  0.73910217  0.98837185  0.89749547     0.35690
C3508       C  0.71158204  0.97369080  0.90690349    -0.06480
C3509       C  0.68896885  0.99066168  0.92250947    -0.33450
C3510       C  0.68936727  0.02252581  0.92067624     0.35600
H3511       H  0.75738689  0.03159173  0.88209939     0.15970
O3512       O  0.76313773  0.97196551  0.88489453    -0.60950
H3513       H  0.66822445  0.97959971  0.93087035     0.15980
O3514       O  0.66368330  0.03893726  0.92962595    -0.61050
H3515       H  0.66399653  0.03884024  0.95250111     0.42980
H3516       H  0.77527973  0.96454329  0.90279626     0.42940
C3517       C  0.74511251  0.20275526  0.91545505    -0.06130
C3518       C  0.73582438  0.23382822  0.91849802    -0.33560
C3519       C  0.75780108  0.25791371  0.91824878     0.35690
C3520       C  0.78943504  0.25106531  0.91535197    -0.06480
C3521       C  0.79865250  0.21990899  0.91530265    -0.33450
C3522       C  0.77696289  0.19597977  0.91544583     0.35600
H3523       H  0.71148481  0.23964928  0.91833019     0.15970
O3524       O  0.74795243  0.28793031  0.91787059    -0.60950
H3525       H  0.82292338  0.21406280  0.91335482     0.15980
O3526       O  0.78721402  0.16601333  0.91346738    -0.61050
H3527       H  0.78671393  0.15817334  0.93492420     0.42980
H3528       H  0.74082114  0.29126693  0.89642520     0.42940
C3529       C  0.97211038  0.08165484  0.70189309    -0.06130
C3530       C  0.98525352  0.06994561  0.67473136    -0.33560
C3531       C  0.01704099  0.07124681  0.67147558     0.35690
C3532       C  0.03456444  0.08244762  0.69630437    -0.06480
C3533       C  0.02195491  0.08372779  0.72591595    -0.33450
C3534       C  0.99004901  0.08331576  0.72896482     0.35600
H3535       H  0.97122816  0.06593335  0.65438077     0.15970
O3536       O  0.03021589  0.06648778  0.64302036    -0.60950
H3537       H  0.03591602  0.09087277  0.74545000     0.15980
O3538       O  0.97720085  0.09129844  0.75680561    -0.61050
H3539       H  0.97664690  0.07184790  0.76878581     0.42980
H3540       H  0.02447606  0.08474834  0.63047826     0.42940
C3541       C  0.91008223  0.02956266  0.68983558    -0.06130
C3542       C  0.91337740  0.01411795  0.66150964    -0.33560
C3543       C  0.91112447  0.98214346  0.66073258     0.35690
C3544       C  0.90649834  0.96645985  0.68867400    -0.06480
C3545       C  0.91304933  0.98141562  0.71670148    -0.33450
C3546       C  0.91487096  0.01335561  0.71743313     0.35600
H3547       H  0.91266026  0.02660531  0.63990244     0.15970
O3548       O  0.90964123  0.96711783  0.63278878    -0.60950
H3549       H  0.91230691  0.96906716  0.73838682     0.15980
O3550       O  0.91605195  0.02823793  0.74541476    -0.61050
H3551       H  0.93823014  0.03270554  0.74879586     0.42980
H3552       H  0.88888427  0.97188550  0.62433369     0.42940
C3553       C  0.79730911  0.09401587  0.74999305    -0.06130
C3554       C  0.80049562  0.10895896  0.77881274    -0.33560
C3555       C  0.77632942  0.11109163  0.79994630     0.35690
C3556       C  0.74732458  0.09778519  0.79332145    -0.06480
C3557       C  0.74413361  0.08157537  0.76498479    -0.33450
C3558       C  0.76879784  0.07965845  0.74344005     0.35600
H3559       H  0.82205919  0.11994132  0.78516819     0.15970
O3560       O  0.78147540  0.12711255  0.82686464    -0.60950
H3561       H  0.72228827  0.07088109  0.75918982     0.15980
O3562       O  0.76425894  0.06492524  0.71575206    -0.61050
H3563       H  0.77028355  0.04312549  0.71942977     0.42980
H3564       H  0.78993932  0.11167108  0.84145848     0.42940
C3565       C  0.91857143  0.20335851  0.75339626    -0.06130
C3566       C  0.91654588  0.19677489  0.78511111    -0.33560
C3567       C  0.91219176  0.22017113  0.80727167     0.35690
C3568       C  0.91045676  0.25145786  0.79850298    -0.06480
C3569       C  0.91475196  0.25858922  0.76705984    -0.33450
C3570       C  0.91843389  0.23480205  0.74458111     0.35600
H3571       H  0.91632343  0.17293313  0.79268902     0.15970
O3572       O  0.90878212  0.21206715  0.83765498    -0.60950
H3573       H  0.91305980  0.28240052  0.75961284     0.15980
O3574       O  0.91919686  0.24246968  0.71399672    -0.61050
H3575       H  0.89726257  0.24255579  0.70745713     0.42980
H3576       H  0.88692437  0.20560782  0.83973962     0.42940
C3577       C  0.52748884  0.19319707  0.61454743    -0.06130
C3578       C  0.51467858  0.20355585  0.58670486    -0.33560
C3579       C  0.48269325  0.20189137  0.58242271     0.35690
C3580       C  0.46456514  0.18899249  0.60584613    -0.06480
C3581       C  0.47764803  0.17974454  0.63363163    -0.33450
C3582       C  0.50883477  0.18202972  0.63829866     0.35600
H3583       H  0.52933479  0.21230683  0.56849959     0.15970
O3584       O  0.46964900  0.21173688  0.55536200    -0.60950
H3585       H  0.46361970  0.17109769  0.65227145     0.15980
O3586       O  0.52097181  0.17435788  0.66655948    -0.61050
H3587       H  0.51360920  0.15313958  0.67107133     0.42980
H3588       H  0.46280156  0.23324216  0.55951033     0.42940
C3589       C  0.61414765  0.19127346  0.53463877    -0.06130
C3590       C  0.58602610  0.18538122  0.51991993    -0.33560
C3591       C  0.58476100  0.18606631  0.48782372     0.35690
C3592       C  0.61181922  0.19245790  0.47140003    -0.06480
C3593       C  0.63940933  0.19920845  0.48632007    -0.33450
C3594       C  0.64083772  0.19825916  0.51787463     0.35600
H3595       H  0.56557842  0.17983939  0.53315835     0.15970
O3596       O  0.55759889  0.17998415  0.47282145    -0.60950
H3597       H  0.66032699  0.20383431  0.47341479     0.15980
O3598       O  0.66871412  0.20299881  0.53207790    -0.61050
H3599       H  0.67957578  0.18280871  0.53085382     0.42980
H3600       H  0.54683664  0.20020393  0.47167310     0.42940
C3601       C  0.72288553  0.12912115  0.66140763    -0.06130
C3602       C  0.73613442  0.15526146  0.67552500    -0.33560
C3603       C  0.76443426  0.16635685  0.66535774     0.35690
C3604       C  0.78009857  0.15060894  0.64178988    -0.06480
C3605       C  0.76643157  0.12469393  0.62794119    -0.33450
C3606       C  0.74023718  0.11162657  0.64062570     0.35600
H3607       H  0.72266048  0.16973468  0.69086282     0.15970
O3608       O  0.77787689  0.19091276  0.68022615    -0.60950
H3609       H  0.77920600  0.11122602  0.61131026     0.15980
O3610       O  0.72854628  0.08493789  0.62800556    -0.61050
H3611       H  0.73308693  0.06862628  0.64335732     0.42980
H3612       H  0.76909045  0.20950138  0.67018848     0.42940
C3613       C  0.64495054  0.11703798  0.72515397    -0.06130
C3614       C  0.61721733  0.10604829  0.73734996    -0.33560
C3615       C  0.60169592  0.12460587  0.75865199     0.35690
C3616       C  0.61953785  0.14328937  0.77768754    -0.06480
C3617       C  0.64857489  0.15316309  0.76758329    -0.33450
C3618       C  0.66229610  0.13831157  0.74251077     0.35600
H3619       H  0.60473586  0.08810808  0.72530688     0.15970
O3620       O  0.57231078  0.11741120  0.76747528    -0.60950
H3621       H  0.66246419  0.16829519  0.78196632     0.15980
O3622       O  0.69060944  0.14787671  0.73246960    -0.61050
H3623       H  0.70540562  0.13243249  0.74061229     0.42980
H3624       H  0.56057399  0.13709840  0.76647191     0.42940
C3625       C  0.46924410  0.38580018  0.79184677    -0.06130
C3626       C  0.48138705  0.40702285  0.81292848    -0.33560
C3627       C  0.51226087  0.41496515  0.81092413     0.35690
C3628       C  0.53068232  0.39959575  0.78893534    -0.06480
C3629       C  0.51677662  0.38585436  0.76321948    -0.33450
C3630       C  0.48568879  0.37842133  0.76471828     0.35600
H3631       H  0.46799913  0.41480163  0.83262273     0.15970
O3632       O  0.52527271  0.43211002  0.83419754    -0.60950
H3633       H  0.53063220  0.37561064  0.74502034     0.15980
O3634       O  0.47338546  0.35963314  0.74230870    -0.61050
H3635       H  0.46393936  0.37393170  0.72717211     0.42980
H3636       H  0.51888557  0.45372181  0.83005149     0.42940
C3637       C  0.58356640  0.52229063  0.80850529    -0.06130
C3638       C  0.57964340  0.50680356  0.78033863    -0.33560
C3639       C  0.58279827  0.47496439  0.77999278     0.35690
C3640       C  0.58928213  0.46033437  0.80814693    -0.06480
C3641       C  0.58163255  0.47483510  0.83599870    -0.33450
C3642       C  0.57776323  0.50658807  0.83618341     0.35600
H3643       H  0.58106676  0.51908336  0.75865665     0.15970
O3644       O  0.58656744  0.46001430  0.75226712    -0.60950
H3645       H  0.58355978  0.46266139  0.85772394     0.15980
O3646       O  0.57467767  0.52219707  0.86371753    -0.61050
H3647       H  0.59398549  0.51831306  0.87543413     0.42980
H3648       H  0.56680732  0.44904207  0.74865837     0.42940
C3649       C  0.72270429  0.34095205  0.86207095    -0.06130
C3650       C  0.74228473  0.33852469  0.83654358    -0.33560
C3651       C  0.76831919  0.35711388  0.83522898     0.35690
C3652       C  0.77767699  0.37387653  0.86134766    -0.06480
C3653       C  0.75792412  0.37549705  0.88695210    -0.33450
C3654       C  0.73347727  0.35489549  0.88906224     0.35600
H3655       H  0.73422139  0.32743017  0.81554913     0.15970
O3656       O  0.78506576  0.35786795  0.80867707    -0.60950
H3657       H  0.76556988  0.38715236  0.90775199     0.15980
O3658       O  0.71689231  0.35252520  0.91592925    -0.61050
H3659       H  0.73144681  0.34416655  0.93147139     0.42980
H3660       H  0.77610713  0.37508083  0.79655038     0.42940
C3661       C  0.64075751  0.27670978  0.87447942    -0.06130
C3662       C  0.66781649  0.26683371  0.85983294    -0.33560
C3663       C  0.66921693  0.23720202  0.84706743     0.35690
C3664       C  0.64303452  0.21787175  0.84845265    -0.06480
C3665       C  0.61600663  0.22850052  0.86225309    -0.33450
C3666       C  0.61549449  0.25653492  0.87711423     0.35600
H3667       H  0.68686831  0.28263398  0.85645435     0.15970
O3668       O  0.69627497  0.22702373  0.83407501    -0.60950
H3669       H  0.59569546  0.21403485  0.86413433     0.15980
O3670       O  0.58862959  0.26580358  0.89113707    -0.61050
H3671       H  0.57314496  0.26816180  0.87441390     0.42980
H3672       H  0.69343749  0.22964785  0.81153203     0.42940
C3673       C  0.59750507  0.28272893  0.76809320    -0.06130
C3674       C  0.62443234  0.26665875  0.75968356    -0.33560
C3675       C  0.62414435  0.24424419  0.73634296     0.35690
C3676       C  0.59654532  0.23693088  0.72066639    -0.06480
C3677       C  0.56890892  0.25087157  0.73076256    -0.33450
C3678       C  0.56927084  0.27377018  0.75427016     0.35600
H3679       H  0.64635983  0.27274262  0.77011787     0.15970
O3680       O  0.65162296  0.23121589  0.72734147    -0.60950
H3681       H  0.54747350  0.24577864  0.71891605     0.15980
O3682       O  0.54235076  0.28868062  0.76188735    -0.61050
H3683       H  0.54118853  0.30668851  0.74785097     0.42980
H3684       H  0.65356469  0.21209808  0.73968068     0.42940
C3685       C  0.80544913  0.46738035  0.57992284    -0.06130
C3686       C  0.77659451  0.48192956  0.57821805    -0.33560
C3687       C  0.77533528  0.51404005  0.57900933     0.35690
C3688       C  0.80328896  0.53045639  0.58133569    -0.06480
C3689       C  0.83083204  0.51599758  0.57234912    -0.33450
C3690       C  0.83230694  0.48400425  0.57274151     0.35600
H3691       H  0.75554314  0.46899890  0.58204042     0.15970
O3692       O  0.74739309  0.52830739  0.58354281    -0.60950
H3693       H  0.85223170  0.52887729  0.57110782     0.15980
O3694       O  0.86048810  0.46948078  0.57082210    -0.61050
H3695       H  0.87159553  0.47484372  0.59014729     0.42980
H3696       H  0.74291374  0.53903568  0.56386935     0.42940
C3697       C  0.78982425  0.39248811  0.52376036    -0.06130
C3698       C  0.76547651  0.37819843  0.50810617    -0.33560
C3699       C  0.76489413  0.37897272  0.47610059     0.35690
C3700       C  0.78846959  0.39493780  0.46052656    -0.06480
C3701       C  0.80836437  0.41453367  0.47654269    -0.33450
C3702       C  0.80931007  0.41330099  0.50842303     0.35600
H3703       H  0.74989519  0.36275902  0.52005951     0.15970
O3704       O  0.74437670  0.36043260  0.46050807    -0.60950
H3705       H  0.82586256  0.42759284  0.46437598     0.15980
O3706       O  0.83232435  0.42862468  0.52391380    -0.61050
H3707       H  0.83008189  0.45066755  0.51810941     0.42980
H3708       H  0.75390509  0.33955233  0.46020546     0.42940
C3709       C  0.85826117  0.36241080  0.72209761    -0.06130
C3710       C  0.84382069  0.33659129  0.73433390    -0.33560
C3711       C  0.83587792  0.33681530  0.76513022     0.35690
C3712       C  0.84293642  0.36305589  0.78310616    -0.06480
C3713       C  0.85421337  0.38990403  0.77003805    -0.33450
C3714       C  0.86379029  0.38906881  0.73988520     0.35600
H3715       H  0.83786297  0.31698532  0.71986845     0.15970
O3716       O  0.82493702  0.31030303  0.77851859    -0.60950
H3717       H  0.85984021  0.40993051  0.78413647     0.15980
O3718       O  0.87601912  0.41526845  0.72698614    -0.61050
H3719       H  0.89592890  0.41869945  0.73776234     0.42980
H3720       H  0.80298761  0.30891813  0.77215703     0.42940
C3721       C  0.86792996  0.28568407  0.65633337    -0.06130
C3722       C  0.89570012  0.27170445  0.64941405    -0.33560
C3723       C  0.89593849  0.24130965  0.63997985     0.35690
C3724       C  0.86840927  0.22366555  0.63991154    -0.06480
C3725       C  0.84103552  0.23695968  0.65041583    -0.33450
C3726       C  0.84084260  0.26793503  0.65940269     0.35600
H3727       H  0.91664750  0.28526783  0.64725738     0.15970
O3728       O  0.92379544  0.22812231  0.63289525    -0.60950
H3729       H  0.82042085  0.22315343  0.65275771     0.15980
O3730       O  0.81348926  0.28186754  0.66726511    -0.61050
H3731       H  0.80947693  0.27549916  0.68883636     0.42980
H3732       H  0.93554241  0.22720791  0.65253849     0.42940
C3733       C  0.72772742  0.40413349  0.67791174    -0.06130
C3734       C  0.69634841  0.39894425  0.67124451    -0.33560
C3735       C  0.67411394  0.39671586  0.69483651     0.35690
C3736       C  0.68280115  0.39926512  0.72625524    -0.06480
C3737       C  0.71387425  0.40607263  0.73287517    -0.33450
C3738       C  0.73610036  0.40853732  0.70927029     0.35600
H3739       H  0.68903252  0.39553889  0.64756822     0.15970
O3740       O  0.64405832  0.39095677  0.68675041    -0.60950
H3741       H  0.72141223  0.40815609  0.75663339     0.15980
O3742       O  0.76634534  0.41294941  0.71752531    -0.61050
H3743       H  0.76896908  0.43568888  0.71870963     0.42980
H3744       H  0.63417923  0.41160428  0.68539304     0.42940
C3745       C  0.76183590  0.28585519  0.60554103    -0.06130
C3746       C  0.74603133  0.27951557  0.63307963    -0.33560
C3747       C  0.72291212  0.25705168  0.63461227     0.35690
C3748       C  0.71407122  0.23991851  0.60806256    -0.06480
C3749       C  0.73114424  0.24458773  0.58077493    -0.33450
C3750       C  0.75479828  0.26731944  0.57938208     0.35600
H3751       H  0.75099946  0.29272339  0.65379148     0.15970
O3752       O  0.70821619  0.25300903  0.66235579    -0.60950
H3753       H  0.72522850  0.23171029  0.56012261     0.15980
O3754       O  0.76999049  0.27188754  0.55205600    -0.61050
H3755       H  0.75753974  0.28750990  0.54088677     0.42980
H3756       H  0.71760584  0.23420562  0.67140811     0.42940
loop_ 
_geom_bond_atom_site_label_1 
_geom_bond_atom_site_label_2 
_geom_bond_distance 
_geom_bond_site_symmetry_2 
_ccdc_geom_bond_type 
C1           N19   1.356       .  A
C1           C38   1.473       .  S
C1         C1781   1.509       .  S
N2           N19   1.331       .  A
N2           N24   1.333       .  A
N2          Co39   2.129       .  S
C3           N28   1.333       .  A
C3           C41   1.447       .  S
C3           H48   1.082       .  S
H4           C45   1.082       .  S
C5           N29   1.348       .  A
C5            C9   1.465       .  S
C5           H34   1.080       .  S
Co6          N24   2.153       .  S
Co6          N14   2.163       .  S
Co6          N46   2.152   1_455  S
Co6          N22   2.173   1_455  S
Co6         Cl50   2.496   1_455  S
N7           C45   1.337       .  A
N7           N14   1.323       .  A
N7           Co8   2.084   1_455  S
Co8          N11   2.090   1_655  S
Co8          N28   2.069       .  S
Co8          N15   2.114       .  S
Co8         Cl50   2.445       .  S
C9           N47   1.355       .  A
C9         C1307   1.474       .  S
N10          N17   1.320       .  A
N10          N40   1.330       .  A
N10         Co43   2.059   1_455  S
N11          N29   1.315       .  A
N11          N47   1.328       .  A
N12          C41   1.372       .  A
N12          N22   1.346       .  A
H13          C38   1.081       .  S
N14          N35   1.343       .  A
N15          N33   1.318       .  A
N15          N20   1.331       .  A
C16          N20   1.356       .  A
C16          C44   1.462       .  S
C16        C1462   1.481       .  S
N17          C32   1.350       .  A
N17         Co39   2.156       .  S
C18          N46   1.350       .  A
C18          C21   1.476       .  S
C18          H52   1.082       .  S
C21          N42   1.346       .  A
C21        C1974   1.494       .  S
N22          N28   1.324       .  A
N23          C49   1.348       .  A
N23          N25   1.322       .  A
N23         Co39   2.115   1_655  S
N24          C38   1.356       .  A
N25          N53   1.337       .  A
N25         Co43   2.134       .  S
H26          C49   1.080       .  S
H27          C44   1.082       .  S
N29         Co43   2.101   1_455  S
N30          N42   1.329       .  A
N30          N46   1.332       .  A
N30         Co39   2.101   1_655  S
C31          N35   1.370       .  A
C31          C45   1.455       .  S
C31        C1394   1.508       .  S
C32          C51   1.484       .  S
C32          H36   1.080       .  S
N33          C44   1.344       .  A
N33         Co43   2.085       .  S
C37          N53   1.362       .  A
C37          C49   1.465       .  S
C37        C1887   1.506       .  S
Co39        Cl50   2.459   1_455  S
N40          C51   1.340       .  A
C41        C1578   1.510       .  S
Co43        Cl50   2.498       .  S
C51        C1636   1.498       .  S
C54          N72   1.348       .  A
C54          C91   1.492       .  S
C54        C1839   1.523       .  S
N55          N72   1.328       .  A
N55          N77   1.330       .  A
N55         Co92   2.093       .  S
C56          N81   1.343       .  A
C56          C94   1.454       .  S
C56         H101   1.082       .  S
H57          C98   1.082       .  S
C58          N82   1.347       .  A
C58          C62   1.468       .  S
C58          H87   1.082       .  S
Co59         N77   2.188   1_565  S
Co59         N67   2.125       .  S
Co59         N99   2.101   1_565  S
Co59         N75   2.186       .  S
Co59       Cl103   2.502       .  S
N60          C98   1.339       .  A
N60          N67   1.329       .  A
N60         Co61   2.119       .  S
Co61         N64   2.099       .  S
Co61         N81   2.083       .  S
Co61         N68   2.178       .  S
Co61       Cl103   2.459       .  S
C62         N100   1.353       .  A
C62        C1568   1.483       .  S
N63          N70   1.321       .  A
N63          N93   1.337       .  A
N63         Co96   2.113   1_545  S
N64          N82   1.317       .  A
N64         N100   1.330       .  A
N65          C94   1.371       .  A
N65          N75   1.345       .  A
H66          C91   1.081       .  S
N67          N88   1.336       .  A
N68          N86   1.320       .  A
N68          N73   1.340       .  A
C69          N73   1.374       .  A
C69          C97   1.459       .  S
C69        C1433   1.527       .  S
N70          C85   1.345       .  A
N70         Co92   2.132       .  S
C71          N99   1.350       .  A
C71          C74   1.463       .  S
C71         H105   1.081       .  S
C74          N95   1.351       .  A
C74        C1713   1.489       .  S
N75          N81   1.327       .  A
N76         C102   1.347       .  A
N76          N78   1.321       .  A
N76         Co92   2.125       .  S
N77          C91   1.368       .  A
N78         N106   1.330       .  A
N78         Co96   2.083   1_545  S
H79         C102   1.075       .  S
H80          C97   1.080       .  S
N82         Co96   2.099       .  S
N83          N95   1.324       .  A
N83          N99   1.329       .  A
N83         Co92   2.116       .  S
C84          N88   1.358       .  A
C84          C98   1.459       .  S
C84        C1510   1.489       .  S
C85         C104   1.478       .  S
C85          H89   1.079       .  S
N86          C97   1.354       .  A
N86         Co96   2.104       .  S
C90         N106   1.345       .  A
C90         C102   1.472       .  S
C90        C1771   1.488       .  S
Co92       Cl103   2.458   1_545  S
N93         C104   1.359       .  A
C94        C1346   1.518       .  S
Co96       Cl103   2.493       .  S
C104       C1897   1.518       .  S
C107        N125   1.349       .  A
C107        C144   1.483       .  S
C107       C1723   1.505       .  S
N108        N125   1.324       .  A
N108        N130   1.327       .  A
N108       Co145   2.102   1_545  S
C109        N134   1.331       .  A
C109        C147   1.448       .  S
C109        H154   1.079       .  S
H110        C151   1.079       .  S
C111        N135   1.351       .  A
C111        C115   1.466       .  S
C111        H140   1.081       .  S
Co112       N130   2.153   1_565  S
Co112       N120   2.157   1_565  S
Co112       N152   2.154       .  S
Co112       N128   2.138       .  S
Co112      Cl156   2.506       .  S
N113        C151   1.338       .  A
N113        N120   1.329       .  A
N113       Co114   2.081   1_545  S
Co114       N117   2.123   1_565  S
Co114       N134   2.077       .  S
Co114       N121   2.125       .  S
Co114      Cl156   2.435       .  S
C115        N153   1.358       .  A
C115        C785   1.498       .  S
N116        N123   1.319       .  A
N116        N146   1.331       .  A
N116       Co149   2.091   1_545  S
N117        N135   1.321       .  A
N117        N153   1.333       .  A
N118        C147   1.361       .  A
N118        N128   1.337       .  A
H119        C144   1.081       .  S
N120        N141   1.339       .  A
N121        N139   1.319       .  A
N121        N126   1.331       .  A
C122        N126   1.356       .  A
C122        C150   1.463       .  S
C122       C1114   1.493       .  S
N123        C138   1.348       .  A
N123       Co145   2.117   1_545  S
C124        N152   1.362       .  A
C124        C127   1.484       .  S
C124        H158   1.081       .  S
C127        N148   1.348       .  A
C127       C1423   1.506       .  S
N128        N134   1.329       .  A
N129        C155   1.347       .  A
N129        N131   1.321       .  A
N129       Co145   2.130       .  S
N130        C144   1.362       .  A
N131        N159   1.339       .  A
N131       Co149   2.125       .  S
H132        C155   1.070       .  S
H133        C150   1.081       .  S
N135       Co149   2.115   1_545  S
N136        N148   1.325       .  A
N136        N152   1.325       .  A
N136       Co145   2.091       .  S
C137        N141   1.365       .  A
C137        C151   1.451       .  S
C137        C901   1.501       .  S
C138        C157   1.469       .  S
C138        H142   1.081       .  S
N139        C150   1.349       .  A
N139       Co149   2.094       .  S
C143        N159   1.362       .  A
C143        C155   1.467       .  S
C143       C1348   1.516       .  S
Co145      Cl156   2.432       .  S
N146        C157   1.352       .  A
C147       C1201   1.485       .  S
Co149      Cl156   2.519       .  S
C157       C1712   1.487       .  S
C160        N178   1.347       .  A
C160        C197   1.481       .  S
C160        C900   1.502       .  S
N161        N178   1.329       .  A
N161        N183   1.332       .  A
N161       Co198   2.096   1_455  S
C162        N187   1.341       .  A
C162        C200   1.446       .  S
C162        H207   1.078       .  S
H163        C204   1.077       .  S
C164        N188   1.351       .  A
C164        C168   1.476       .  S
C164        H193   1.081       .  S
Co165       N183   2.162   1_655  S
Co165       N173   2.175   1_655  S
Co165       N205   2.157       .  S
Co165       N181   2.173       .  S
Co165      Cl209   2.499       .  S
N166        C204   1.330       .  A
N166        N173   1.325       .  A
N166       Co167   2.055   1_455  S
Co167       N170   2.121   1_655  S
Co167       N187   2.077       .  S
Co167       N174   2.110       .  S
Co167      Cl209   2.455       .  S
C168        N206   1.359       .  A
C168       C1638   1.504       .  S
N169        N176   1.320       .  A
N169        N199   1.334       .  A
N169       Co202   2.108       .  S
N170        N188   1.319       .  A
N170        N206   1.335       .  A
N171        C200   1.368       .  A
N171        N181   1.337       .  A
H172        C197   1.081       .  S
N173        N194   1.344       .  A
N174        N192   1.316       .  A
N174        N179   1.329       .  A
C175        N179   1.356       .  A
C175        C203   1.468       .  S
C175       C1886   1.499       .  S
N176        C191   1.348       .  A
N176       Co198   2.114   1_455  S
C177        N205   1.365       .  A
C177        C180   1.486       .  S
C177        H211   1.081       .  S
C180        N201   1.344       .  A
C180        C698   1.513       .  S
N181        N187   1.328       .  A
N182        C208   1.350       .  A
N182        N184   1.323       .  A
N182       Co198   2.126       .  S
N183        C197   1.356       .  A
N184        N212   1.333       .  A
N184       Co202   2.113   1_655  S
H185        C208   1.078       .  S
H186        C203   1.081       .  S
N188       Co202   2.127       .  S
N189        N201   1.324       .  A
N189        N205   1.327       .  A
N189       Co198   2.087       .  S
C190        N194   1.371       .  A
C190        C204   1.441       .  S
C190       C1725   1.500       .  S
C191        C210   1.465       .  S
C191        H195   1.082       .  S
N192        C203   1.354       .  A
N192       Co202   2.108   1_655  S
C196        N212   1.354       .  A
C196        C208   1.469       .  S
C196        C611   1.498       .  S
Co198      Cl209   2.452       .  S
N199        C210   1.356       .  A
C200       C1926   1.497       .  S
Co202      Cl209   2.494   1_455  S
C210        C795   1.495       .  S
C213        N231   1.336       .  A
C213        C250   1.480       .  S
C213       C1770   1.480       .  S
N214        N231   1.326       .  A
N214        N236   1.330       .  A
N214       Co251   2.053       .  S
C215        N240   1.348       .  A
C215        C253   1.456       .  S
C215        H260   1.081       .  S
H216        C257   1.081       .  S
C217        N241   1.341       .  A
C217        C221   1.450       .  S
C217        H246   1.081       .  S
Co218       N236   2.158   1_556  S
Co218       N226   2.203   1_556  S
Co218       N258   2.186       .  S
Co218       N234   2.170       .  S
Co218      Cl262   2.481       .  S
N219        C257   1.351       .  A
N219        N226   1.331       .  A
N219       Co220   2.128   1_554  S
Co220       N223   2.132   1_556  S
Co220       N240   2.101       .  S
Co220       N227   2.140       .  S
Co220      Cl262   2.469       .  S
C221        N259   1.361       .  A
C221       C1829   1.482       .  S
N222        N229   1.314       .  A
N222        N252   1.330       .  A
N222       Co255   2.099       .  S
N223        N241   1.322       .  A
N223        N259   1.333       .  A
N224        C253   1.366       .  A
N224        N234   1.335       .  A
H225        C250   1.082       .  S
N226        N247   1.348       .  A
N227        N245   1.321       .  A
N227        N232   1.331       .  A
C228        N232   1.361       .  A
C228        C256   1.452       .  S
C228        C621   1.489       .  S
N229        C244   1.350       .  A
N229       Co251   2.110       .  S
C230        N258   1.368       .  A
C230        C233   1.492       .  S
C230        H264   1.081       .  S
C233        N254   1.344       .  A
C233        C930   1.518       .  S
N234        N240   1.330       .  A
N235        C261   1.346       .  A
N235        N237   1.316       .  A
N235       Co251   2.109   1_556  S
N236        C250   1.350       .  A
N237        N265   1.332       .  A
N237       Co255   2.089   1_556  S
H238        C261   1.071       .  S
H239        C256   1.081       .  S
N241       Co255   2.074       .  S
N242        N254   1.327       .  A
N242        N258   1.329       .  A
N242       Co251   2.081   1_556  S
C243        N247   1.374       .  A
C243        C257   1.468       .  S
C243       C1899   1.542       .  S
C244        C263   1.472       .  S
C244        H248   1.082       .  S
N245        C256   1.347       .  A
N245       Co255   2.080   1_556  S
C249        N265   1.351       .  A
C249        C261   1.465       .  S
C249        C843   1.492       .  S
Co251      Cl262   2.460   1_554  S
N252        C263   1.359       .  A
C253        C708   1.503       .  S
Co255      Cl262   2.499   1_554  S
C263       C1665   1.487       .  S
C266        N284   1.351       .  A
C266        C303   1.485       .  S
C266       C1393   1.522       .  S
N267        N284   1.332       .  A
N267        N289   1.331       .  A
N267       Co304   2.106       .  S
C268        N293   1.345       .  A
C268        C306   1.460       .  S
C268        H313   1.082       .  S
H269        C310   1.080       .  S
C270        N294   1.342       .  A
C270        C274   1.447       .  S
C270        H299   1.081       .  S
Co271       N289   2.176   1_556  S
Co271       N279   2.151   1_556  S
Co271       N311   2.155       .  S
Co271       N287   2.172       .  S
Co271      Cl315   2.498       .  S
N272        C310   1.347       .  A
N272        N279   1.333       .  A
N272       Co273   2.116   1_554  S
Co273       N276   2.145   1_556  S
Co273       N293   2.110       .  S
Co273       N280   2.152       .  S
Co273      Cl315   2.461       .  S
C274        N312   1.363       .  A
C274       C1667   1.483       .  S
N275        N282   1.320       .  A
N275        N305   1.337       .  A
N275       Co308   2.120   1_554  S
N276        N294   1.320       .  A
N276        N312   1.333       .  A
N277        C306   1.367       .  A
N277        N287   1.344       .  A
H278        C303   1.081       .  S
N279        N300   1.337       .  A
N280        N298   1.321       .  A
N280        N285   1.335       .  A
C281        N285   1.365       .  A
C281        C309   1.463       .  S
C281        C842   1.510       .  S
N282        C297   1.356       .  A
N282       Co304   2.143       .  S
C283        N311   1.361       .  A
C283        C286   1.482       .  S
C283        H317   1.081       .  S
C286        N307   1.342       .  A
C286       C1249   1.499       .  S
N287        N293   1.332       .  A
N288        C314   1.353       .  A
N288        N290   1.318       .  A
N288       Co304   2.147   1_556  S
N289        C303   1.363       .  A
N290        N318   1.333       .  A
N290       Co308   2.080       .  S
H291        C314   1.069       .  S
H292        C309   1.081       .  S
N294       Co308   2.064   1_554  S
N295        N307   1.321       .  A
N295        N311   1.330       .  A
N295       Co304   2.085   1_556  S
C296        N300   1.362       .  A
C296        C310   1.461       .  S
C296       C1783   1.507       .  S
C297        C316   1.479       .  S
C297        H301   1.080       .  S
N298        C309   1.353       .  A
N298       Co308   2.106       .  S
C302        N318   1.351       .  A
C302        C314   1.473       .  S
C302       C1162   1.506       .  S
Co304      Cl315   2.462   1_554  S
N305        C316   1.357       .  A
C306        C853   1.520       .  S
Co308      Cl315   2.514       .  S
C316       C1317   1.519       .  S
C319        N337   1.359       .  A
C319        C356   1.441       .  S
C319        C710   1.472       .  S
N320        N337   1.328       .  A
N320        N342   1.319       .  A
N320       Co357   2.139       .  S
C321        N346   1.348       .  A
C321        C359   1.477       .  S
C321        H366   1.067       .  S
H322        C363   1.080       .  S
C323        N347   1.367       .  A
C323        C327   1.491       .  S
C323        H352   1.081       .  S
Co324       N342   2.047   1_565  S
Co324       N332   2.119       .  S
Co324       N364   2.102   1_565  S
Co324       N340   2.089       .  S
Co324      Cl368   2.514       .  S
N325        C363   1.355       .  A
N325        N332   1.319       .  A
N325       Co326   2.144       .  S
Co326       N329   2.101       .  S
Co326       N346   2.140       .  S
Co326       N333   2.103       .  S
Co326      Cl368   2.454       .  S
C327        N365   1.349       .  A
C327        C940   1.520       .  S
N328        N335   1.330       .  A
N328        N358   1.347       .  A
N328       Co361   2.163   1_545  S
N329        N347   1.331       .  A
N329        N365   1.327       .  A
N330        C359   1.356       .  A
N330        N340   1.336       .  A
H331        C356   1.081       .  S
N332        N353   1.338       .  A
N333        N351   1.330       .  A
N333        N338   1.325       .  A
C334        N338   1.347       .  A
C334        C362   1.470       .  S
C334       C1116   1.486       .  S
N335        C350   1.335       .  A
N335       Co357   2.102       .  S
C336        N364   1.348       .  A
C336        C339   1.462       .  S
C336        H370   1.081       .  S
C339        N360   1.358       .  A
C339        C929   1.495       .  S
N340        N346   1.316       .  A
N341        C367   1.342       .  A
N341        N343   1.327       .  A
N341       Co357   2.095       .  S
N342        C356   1.341       .  A
N343        N371   1.345       .  A
N343       Co361   2.182   1_545  S
H344        C367   1.081       .  S
H345        C362   1.081       .  S
N347       Co361   2.184       .  S
N348        N360   1.333       .  A
N348        N364   1.322       .  A
N348       Co357   2.130       .  S
C349        N353   1.357       .  A
C349        C363   1.482       .  S
C349       C1085   1.522       .  S
C350        C369   1.449       .  S
C350        H354   1.076       .  S
N351        C362   1.350       .  A
N351       Co361   2.131       .  S
C355        N371   1.371       .  A
C355        C367   1.458       .  S
C355        C784   1.523       .  S
Co357      Cl368   2.448   1_545  S
N358        C369   1.368       .  A
C359       C1278   1.516       .  S
Co361      Cl368   2.502       .  S
C369        C669   1.515       .  S
C372        N390   1.370       .  A
C372        C409   1.451       .  S
C372       C1539   1.508       .  S
N373        N390   1.338       .  A
N373        N395   1.319       .  A
N373       Co410   2.166       .  S
C374        N399   1.346       .  A
C374        C412   1.472       .  S
C374        H419   1.072       .  S
H375        C416   1.082       .  S
C376        N400   1.352       .  A
C376        C380   1.467       .  S
C376        H405   1.081       .  S
Co377       N395   2.079       .  S
Co377       N385   2.112       .  S
Co377       N417   2.127   1_554  S
Co377       N393   2.092   1_554  S
Co377      Cl421   2.507       .  S
N378        C416   1.353       .  A
N378        N385   1.318       .  A
N378       Co379   2.126       .  S
Co379       N382   2.095       .  S
Co379       N399   2.126   1_554  S
Co379       N386   2.085   1_554  S
Co379      Cl421   2.449       .  S
C380        N418   1.347       .  A
C380       C1973   1.485       .  S
N381        N388   1.329       .  A
N381        N411   1.341       .  A
N381       Co414   2.163       .  S
N382        N400   1.328       .  A
N382        N418   1.327       .  A
N383        C412   1.355       .  A
N383        N393   1.333       .  A
H384        C409   1.080       .  S
N385        N406   1.332       .  A
N386        N404   1.330       .  A
N386        N391   1.325       .  A
C387        N391   1.343       .  A
C387        C415   1.493       .  S
C387        C756   1.516       .  S
N388        C403   1.345       .  A
N388       Co410   2.113       .  S
C389        N417   1.357       .  A
C389        C392   1.473       .  S
C389        H423   1.081       .  S
C392        N413   1.366       .  A
C392        C998   1.528       .  S
N393        N399   1.318       .  A
N394        C420   1.341       .  A
N394        N396   1.331       .  A
N394       Co410   2.115   1_556  S
N395        C409   1.349       .  A
N396        N424   1.343       .  A
N396       Co414   2.161   1_556  S
H397        C420   1.082       .  S
H398        C415   1.081       .  S
N400       Co414   2.124       .  S
N401        N413   1.339       .  A
N401        N417   1.323       .  A
N401       Co410   2.160   1_556  S
C402        N406   1.356       .  A
C402        C416   1.479       .  S
C402       C1828   1.496       .  S
C403        C422   1.462       .  S
C403        H407   1.082       .  S
N404        C415   1.368       .  A
N404       Co414   2.186   1_556  S
C408        N424   1.366       .  A
C408        C420   1.460       .  S
C408       C1056   1.514       .  S
Co410      Cl421   2.457       .  S
N411        C422   1.365       .  A
C412        C623   1.500       .  S
Co414      Cl421   2.509       .  S
C422       C1580   1.513       .  S
C425        N443   1.359       .  A
C425        C462   1.469       .  S
C425       C1191   1.509       .  S
N426        N443   1.335       .  A
N426        N448   1.318       .  A
N426       Co463   2.128   1_455  S
C427        N452   1.353       .  A
C427        C465   1.482       .  S
C427        H472   1.076       .  S
H428        C469   1.080       .  S
C429        N453   1.365       .  A
C429        C433   1.484       .  S
C429        H458   1.081       .  S
Co430       N448   2.105   1_655  S
Co430       N438   2.096   1_655  S
Co430       N470   2.103       .  S
Co430       N446   2.082       .  S
Co430      Cl474   2.497       .  S
N431        C469   1.352       .  A
N431        N438   1.325       .  A
N431       Co432   2.144   1_455  S
Co432       N435   2.133   1_655  S
Co432       N452   2.159       .  S
Co432       N439   2.126       .  S
Co432      Cl474   2.475       .  S
C433        N471   1.358       .  A
C433       C1422   1.532       .  S
N434        N441   1.329       .  A
N434        N464   1.335       .  A
N434       Co467   2.132   1_455  S
N435        N453   1.329       .  A
N435        N471   1.331       .  A
N436        C465   1.345       .  A
N436        N446   1.331       .  A
H437        C462   1.081       .  S
N438        N459   1.332       .  A
N439        N457   1.333       .  A
N439        N444   1.332       .  A
C440        N444   1.353       .  A
C440        C468   1.479       .  S
C440       C1626   1.516       .  S
N441        C456   1.340       .  A
N441       Co463   2.106   1_455  S
C442        N470   1.351       .  A
C442        C445   1.459       .  S
C442        H476   1.081       .  S
C445        N466   1.375       .  A
C445        C969   1.529       .  S
N446        N452   1.324       .  A
N447        C473   1.335       .  A
N447        N449   1.329       .  A
N447       Co463   2.077       .  S
N448        C462   1.353       .  A
N449        N477   1.350       .  A
N449       Co467   2.195       .  S
H450        C473   1.072       .  S
H451        C468   1.081       .  S
N453       Co467   2.163   1_455  S
N454        N466   1.345       .  A
N454        N470   1.321       .  A
N454       Co463   2.184       .  S
C455        N459   1.350       .  A
C455        C469   1.475       .  S
C455       C1306   1.499       .  S
C456        C475   1.460       .  S
C456        H460   1.079       .  S
N457        C468   1.360       .  A
N457       Co467   2.157       .  S
C461        N477   1.376       .  A
C461        C473   1.448       .  S
C461       C1027   1.531       .  S
Co463      Cl474   2.465       .  S
N464        C475   1.358       .  A
C465       C1464   1.503       .  S
Co467      Cl474   2.509       .  S
C475       C1203   1.494       .  S
C478        N496   1.353       .  A
C478        C515   1.510       .  S
C478       C1248   1.553       .  S
N479        N496   1.333       .  A
N479        N501   1.330       .  A
N479       Co516   2.111       .  S
C480        N505   1.347       .  A
C480        C518   1.462       .  S
C480        H525   1.082       .  S
H481        C522   1.081       .  S
C482        N506   1.351       .  A
C482        C486   1.462       .  S
C482        H511   1.081       .  S
Co483       N501   2.231       .  S
Co483       N491   2.196       .  S
Co483       N523   2.199   1_455  S
Co483       N499   2.195   1_455  S
Co483      Cl527   2.518       .  S
N484        C522   1.347       .  A
N484        N491   1.335       .  A
N484       Co485   2.123       .  S
Co485       N488   2.180       .  S
Co485       N505   2.127   1_455  S
Co485       N492   2.163   1_455  S
Co485      Cl527   2.479       .  S
C486        N524   1.373       .  A
C486        C797   1.526       .  S
N487        N494   1.320       .  A
N487        N517   1.330       .  A
N487       Co520   2.075       .  S
N488        N506   1.322       .  A
N488        N524   1.343       .  A
N489        C518   1.372       .  A
N489        N499   1.346       .  A
H490        C515   1.081       .  S
N491        N512   1.346       .  A
N492        N510   1.320       .  A
N492        N497   1.337       .  A
C493        N497   1.368       .  A
C493        C521   1.451       .  S
C493        C610   1.500       .  S
N494        C509   1.348       .  A
N494       Co516   2.133       .  S
C495        N523   1.369       .  A
C495        C498   1.496       .  S
C495        H529   1.081       .  S
C498        N519   1.355       .  A
C498       C1058   1.538       .  S
N499        N505   1.334       .  A
N500        C526   1.354       .  A
N500        N502   1.321       .  A
N500       Co516   2.139   1_655  S
N501        C515   1.378       .  A
N502        N530   1.335       .  A
N502       Co520   2.107   1_655  S
H503        C526   1.082       .  S
H504        C521   1.081       .  S
N506       Co520   2.104       .  S
N507        N519   1.334       .  A
N507        N523   1.329       .  A
N507       Co516   2.119   1_655  S
C508        N512   1.372       .  A
C508        C522   1.461       .  S
C508        C855   1.530       .  S
C509        C528   1.474       .  S
C509        H513   1.082       .  S
N510        C521   1.345       .  A
N510       Co520   2.071   1_655  S
C514        N530   1.354       .  A
C514        C526   1.476       .  S
C514        C971   1.506       .  S
Co516      Cl527   2.475       .  S
N517        C528   1.347       .  A
C518        C755   1.529       .  S
Co520      Cl527   2.501       .  S
C528       C1190   1.484       .  S
C531        N549   1.349       .  A
C531        C568   1.487       .  S
C531       C1538   1.517       .  S
N532        N549   1.329       .  A
N532        N554   1.330       .  A
N532       Co569   2.097       .  S
C533        N558   1.350       .  A
C533        C571   1.466       .  S
C533        H578   1.082       .  S
H534        C575   1.082       .  S
C535        N559   1.346       .  A
C535        C539   1.448       .  S
C535        H564   1.080       .  S
Co536       N554   2.176   1_556  S
Co536       N544   2.164       .  S
Co536       N576   2.163   1_556  S
Co536       N552   2.164       .  S
Co536      Cl580   2.487       .  S
N537        C575   1.346       .  A
N537        N544   1.334       .  A
N537       Co538   2.115       .  S
Co538       N541   2.174       .  S
Co538       N558   2.130       .  S
Co538       N545   2.190       .  S
Co538      Cl580   2.471       .  S
C539        N577   1.372       .  A
C539       C1087   1.507       .  S
N540        N547   1.319       .  A
N540        N570   1.325       .  A
N540       Co573   2.041       .  S
N541        N559   1.318       .  A
N541        N577   1.341       .  A
N542        C571   1.362       .  A
N542        N552   1.341       .  A
H543        C568   1.081       .  S
N544        N565   1.340       .  A
N545        N563   1.319       .  A
N545        N550   1.342       .  A
C546        N550   1.376       .  A
C546        C574   1.446       .  S
C546       C1277   1.509       .  S
N547        C562   1.348       .  A
N547       Co569   2.139       .  S
C548        N576   1.361       .  A
C548        C551   1.483       .  S
C548        H582   1.081       .  S
C551        N572   1.352       .  A
C551       C1319   1.515       .  S
N552        N558   1.335       .  A
N553        C579   1.345       .  A
N553        N555   1.319       .  A
N553       Co569   2.112       .  S
N554        C568   1.364       .  A
N555        N583   1.326       .  A
N555       Co573   2.071       .  S
H556        C579   1.077       .  S
H557        C574   1.081       .  S
N559       Co573   2.070   1_556  S
N560        N572   1.331       .  A
N560        N576   1.330       .  A
N560       Co569   2.115       .  S
C561        N565   1.364       .  A
C561        C575   1.458       .  S
C561       C1000   1.509       .  S
C562        C581   1.479       .  S
C562        H566   1.081       .  S
N563        C574   1.344       .  A
N563       Co573   2.060   1_556  S
C567        N583   1.345       .  A
C567        C579   1.468       .  S
C567       C1435   1.475       .  S
Co569      Cl580   2.470   1_554  S
N570        C581   1.336       .  A
C571       C1161   1.518       .  S
Co573      Cl580   2.500   1_554  S
C581       C1567   1.476       .  S
O584        C592   1.242       .  A
O584       Co604   1.905       .  S
O585        C593   1.310       .  A
O585       Co605   2.126       .  S
O586        C594   1.285       .  A
O586       Co606   2.050       .  S
O587        C595   1.278       .  A
O587       Co607   1.983       .  S
O588        C594   1.245       .  A
O588       Co605   1.869       .  S
O589        C595   1.290       .  A
O589       Co604   2.058       .  S
O590        C593   1.282       .  A
O590       Co607   1.889       .  S
O591        C592   1.279       .  A
O591       Co606   2.017       .  S
C592       C3721   1.419       .  S
C593       C3733   1.507       .  S
C594       C3709   1.395       .  S
C595       C3745   1.511       .  S
O596        C609   1.269       .  A
O596       Co604   1.944       .  S
O597        C610   1.307       .  A
O597       Co605   2.145       .  S
O598        C611   1.304       .  A
O598       Co606   2.112       .  S
O599        C612   1.252       .  A
O599       Co607   1.996       .  S
O600        C612   1.245       .  A
O600       Co605   1.925       .  S
O601        C611   1.286       .  A
O601       Co604   1.927       .  S
O602        C609   1.272       .  A
O602       Co607   1.981       .  S
O603        C610   1.267       .  A
O603       Co606   1.907       .  S
Co604       O608   1.896       .  S
Co605       O608   2.094       .  S
Co606       O608   1.960       .  S
Co607       O608   1.926       .  S
C609       C3697   1.443       .  S
C612       C3685   1.450       .  S
O613        C621   1.285       .  A
O613       Co633   1.922       .  S
O614        C622   1.245       .  A
O614       Co634   1.927       .  S
O615        C623   1.265       .  A
O615       Co635   1.908       .  S
O616        C624   1.275       .  A
O616       Co636   1.990       .  S
O617        C623   1.304       .  A
O617       Co634   2.137       .  S
O618        C624   1.267       .  A
O618       Co633   1.943       .  S
O619        C622   1.244       .  A
O619       Co636   1.976       .  S
O620        C621   1.302       .  A
O620       Co635   2.108       .  S
C622       C3640   1.440       .  S
C624       C3628   1.452       .  S
O625        C638   1.291       .  A
O625       Co633   2.058       .  S
O626        C639   1.258       .  A
O626       Co634   1.893       .  S
O627        C640   1.281       .  A
O627       Co635   2.039       .  S
O628        C641   1.280       .  A
O628       Co636   1.879       .  S
O629        C641   1.316       .  A
O629       Co634   2.151       .  S
O630        C640   1.244       .  A
O630       Co633   1.906       .  S
O631        C638   1.276       .  A
O631       Co636   1.968       .  S
O632        C639   1.289       .  A
O632       Co635   2.031       .  S
Co633       O637   1.882       .  S
Co634       O637   2.094       .  S
Co635       O637   1.951       .  S
Co636       O637   1.915       .  S
C638       C3673   1.496       .  S
C639       C3649   1.430       .  S
C640       C3661   1.432       .  S
C641       C3736   1.506       .  S
O642        C650   1.249       .  A
O642       Co662   1.882       .  S
O643        C651   1.288       .  A
O643       Co663   2.061       .  S
O644        C652   1.274       .  A
O644       Co664   2.048       .  S
O645        C653   1.268       .  A
O645       Co665   1.965       .  S
O646        C652   1.231       .  A
O646       Co663   1.884       .  S
O647        C653   1.283       .  A
O647       Co662   2.048       .  S
O648        C651   1.266       .  A
O648       Co665   1.962       .  S
O649        C650   1.288       .  A
O649       Co664   2.058       .  S
C650       C3613   1.423       .  S
C651       C3748   1.510       .  S
C652       C3601   1.420       .  S
C653       C3676   1.492       .  S
O654        C667   1.253       .  A
O654       Co662   1.939       .  S
O655        C668   1.301       .  A
O655       Co663   2.019       .  S
O656        C669   1.309       .  A
O656       Co664   2.149       .  S
O657        C670   1.263       .  A
O657       Co665   1.972       .  S
O658        C670   1.255       .  A
O658       Co663   1.942       .  S
O659        C669   1.274       .  A
O659       Co662   1.908       .  S
O660        C667   1.260       .  A
O660       Co665   1.984       .  S
O661        C668   1.296       .  A
O661       Co664   2.021       .  S
Co662       O666   1.854       .  S
Co663       O666   1.953       .  S
Co664       O666   2.112       .  S
Co665       O666   2.020       .  S
C667       C3577   1.432       .  S
C668       C1976   1.510       .  S
C670       C3589   1.423       .  S
O671        C679   1.238       .  A
O671       Co691   1.857       .  S
O672        C680   1.288       .  A
O672       Co692   2.067       .  S
O673        C681   1.271       .  A
O673       Co693   2.028       .  S
O674        C682   1.271       .  A
O674       Co694   1.962       .  S
O675        C681   1.235       .  A
O675       Co692   1.897       .  S
O676        C682   1.297       .  A
O676       Co691   2.073       .  S
O677        C680   1.262       .  A
O677       Co694   1.948       .  S
O678        C679   1.293       .  A
O678       Co693   2.077       .  S
C679       C3724   1.435       .  S
C680       C3553   1.506       .  S
C681       C3604   1.419       .  S
C682       C3565   1.506       .  S
O683        C696   1.260       .  A
O683       Co691   1.951       .  S
O684        C697   1.299       .  A
O684       Co692   2.031       .  S
O685        C698   1.302       .  A
O685       Co693   2.113       .  S
O686        C699   1.269       .  A
O686       Co694   1.991       .  S
O687        C699   1.258       .  A
O687       Co692   1.932       .  S
O688        C698   1.287       .  A
O688       Co691   1.941       .  S
O689        C696   1.258       .  A
O689       Co694   1.967       .  S
O690        C697   1.296       .  A
O690       Co693   2.023       .  S
Co691       O695   1.875       .  S
Co692       O695   1.984       .  S
Co693       O695   2.081       .  S
Co694       O695   1.998       .  S
C696       C3529   1.455       .  S
C697       C2026   1.517       .  S
C699       C3541   1.455       .  S
O700        C708   1.318       .  A
O700       Co720   2.170       .  S
O701        C709   1.274       .  A
O701       Co721   1.934       .  S
O702        C710   1.259       .  A
O702       Co722   1.975       .  S
O703        C711   1.271       .  A
O703       Co723   2.026       .  S
O704        C710   1.274       .  A
O704       Co721   2.015       .  S
O705        C711   1.249       .  A
O705       Co720   1.915       .  S
O706        C709   1.296       .  A
O706       Co723   2.044       .  S
O707        C708   1.268       .  A
O707       Co722   1.888       .  S
C709       C3505   1.436       .  S
C711       C3493   1.425       .  S
O712        C725   1.291       .  A
O712       Co720   2.012       .  S
O713        C726   1.271       .  A
O713       Co721   1.920       .  S
O714        C727   1.288       .  A
O714       Co722   2.048       .  S
O715        C728   1.263       .  A
O715       Co723   1.968       .  S
O716        C728   1.268       .  A
O716       Co721   2.018       .  S
O717        C727   1.240       .  A
O717       Co720   1.923       .  S
O718        C725   1.284       .  A
O718       Co723   1.971       .  S
O719        C726   1.288       .  A
O719       Co722   2.009       .  S
Co720       O724   2.028       .  S
Co721       O724   1.989       .  S
Co722       O724   1.878       .  S
Co723       O724   1.977       .  S
C725       C3517   1.489       .  S
C726       C3616   1.417       .  S
C727       C3664   1.438       .  S
C728       C3556   1.508       .  S
O729        C737   1.248       .  A
O729       Co749   1.881       .  S
O730        C738   1.281       .  A
O730       Co750   2.054       .  S
O731        C739   1.271       .  A
O731       Co751   2.015       .  S
O732        C740   1.278       .  A
O732       Co752   1.963       .  S
O733        C739   1.231       .  A
O733       Co750   1.882       .  S
O734        C740   1.296       .  A
O734       Co749   2.065       .  S
O735        C738   1.269       .  A
O735       Co752   1.987       .  S
O736        C737   1.290       .  A
O736       Co751   2.064       .  S
C737       C3652   1.432       .  S
C738       C3568   1.503       .  S
C739       C3712   1.404       .  S
C740       C3520   1.489       .  S
O741        C754   1.265       .  A
O741       Co749   1.971       .  S
O742        C755   1.296       .  A
O742       Co750   2.025       .  S
O743        C756   1.308       .  A
O743       Co751   2.133       .  S
O744        C757   1.269       .  A
O744       Co752   1.977       .  S
O745        C757   1.260       .  A
O745       Co750   1.921       .  S
O746        C756   1.289       .  A
O746       Co749   1.930       .  S
O747        C754   1.252       .  A
O747       Co752   1.952       .  S
O748        C755   1.299       .  A
O748       Co751   2.044       .  S
Co749       O753   1.878       .  S
Co750       O753   1.969       .  S
Co751       O753   2.101       .  S
Co752       O753   2.005       .  S
C754       C3469   1.450       .  S
C757       C3481   1.404       .  S
O758        C766   1.258       .  A
O758       Co778   1.898       .  S
O759        C767   1.276       .  A
O759       Co779   2.030       .  S
O760        C768   1.276       .  A
O760       Co780   2.081       .  S
O761        C769   1.276       .  A
O761       Co781   1.980       .  S
O762        C768   1.223       .  A
O762       Co779   1.901       .  S
O763        C769   1.299       .  A
O763       Co778   2.094       .  S
O764        C767   1.269       .  A
O764       Co781   1.972       .  S
O765        C766   1.283       .  A
O765       Co780   2.015       .  S
C766       C3433   1.416       .  S
C767       C3457   1.482       .  S
C768       C3421   1.426       .  S
C769       C3445   1.526       .  S
O770        C783   1.258       .  A
O770       Co778   1.954       .  S
O771        C784   1.296       .  A
O771       Co779   2.030       .  S
O772        C785   1.310       .  A
O772       Co780   2.127       .  S
O773        C786   1.271       .  A
O773       Co781   1.997       .  S
O774        C786   1.261       .  A
O774       Co779   1.943       .  S
O775        C785   1.282       .  A
O775       Co778   1.916       .  S
O776        C783   1.255       .  A
O776       Co781   1.957       .  S
O777        C784   1.294       .  A
O777       Co780   2.031       .  S
Co778       O782   1.883       .  S
Co779       O782   1.974       .  S
Co780       O782   2.105       .  S
Co781       O782   2.018       .  S
C783       C3409   1.451       .  S
C786       C3580   1.431       .  S
O787        C795   1.296       .  A
O787       Co807   2.016       .  S
O788        C796   1.258       .  A
O788       Co808   1.933       .  S
O789        C797   1.259       .  A
O789       Co809   2.030       .  S
O790        C798   1.278       .  A
O790       Co810   2.004       .  S
O791        C797   1.273       .  A
O791       Co808   2.036       .  S
O792        C798   1.259       .  A
O792       Co807   1.916       .  S
O793        C796   1.260       .  A
O793       Co810   1.991       .  S
O794        C795   1.291       .  A
O794       Co809   2.001       .  S
C796       C3349   1.454       .  S
C798       C3361   1.455       .  S
O799        C812   1.294       .  A
O799       Co807   2.116       .  S
O800        C813   1.262       .  A
O800       Co808   1.909       .  S
O801        C814   1.256       .  A
O801       Co809   2.008       .  S
O802        C815   1.264       .  A
O802       Co810   1.956       .  S
O803        C815   1.283       .  A
O803       Co808   2.063       .  S
O804        C814   1.232       .  A
O804       Co807   1.939       .  S
O805        C812   1.257       .  A
O805       Co810   1.957       .  S
O806        C813   1.288       .  A
O806       Co809   1.991       .  S
Co807       O811   2.072       .  S
Co808       O811   2.051       .  S
Co809       O811   2.008       .  S
Co810       O811   2.028       .  S
C812       C3448   1.533       .  S
C813       C3373   1.383       .  S
C814       C3388   1.444       .  S
C815       C3400   1.499       .  S
O816        C824   1.254       .  A
O816       Co836   1.902       .  S
O817        C825   1.283       .  A
O817       Co837   2.063       .  S
O818        C826   1.271       .  A
O818       Co838   2.037       .  S
O819        C827   1.272       .  A
O819       Co839   1.955       .  S
O820        C826   1.223       .  A
O820       Co837   1.876       .  S
O821        C827   1.288       .  A
O821       Co836   2.050       .  S
O822        C825   1.266       .  A
O822       Co839   1.967       .  S
O823        C824   1.282       .  A
O823       Co838   2.029       .  S
C824       C3328   1.425       .  S
C825       C3397   1.495       .  S
C826       C3337   1.393       .  S
C827       C3460   1.481       .  S
O828        C841   1.262       .  A
O828       Co836   1.965       .  S
O829        C842   1.301       .  A
O829       Co837   2.056       .  S
O830        C843   1.302       .  A
O830       Co838   2.106       .  S
O831        C844   1.269       .  A
O831       Co839   1.991       .  S
O832        C844   1.259       .  A
O832       Co837   1.939       .  S
O833        C843   1.280       .  A
O833       Co836   1.921       .  S
O834        C841   1.251       .  A
O834       Co839   1.950       .  S
O835        C842   1.286       .  A
O835       Co838   1.989       .  S
Co836       O840   1.890       .  S
Co837       O840   1.980       .  S
Co838       O840   2.072       .  S
Co839       O840   1.999       .  S
C841       C3625   1.447       .  S
C844       C3313   1.423       .  S
O845        C853   1.282       .  A
O845       Co865   1.928       .  S
O846        C854   1.256       .  A
O846       Co866   1.916       .  S
O847        C855   1.298       .  A
O847       Co867   2.034       .  S
O848        C856   1.259       .  A
O848       Co868   1.962       .  S
O849        C855   1.302       .  A
O849       Co866   2.048       .  S
O850        C856   1.263       .  A
O850       Co865   1.957       .  S
O851        C854   1.265       .  A
O851       Co868   1.973       .  S
O852        C853   1.310       .  A
O852       Co867   2.144       .  S
C854       C3484   1.407       .  S
C856       C3280   1.458       .  S
O857        C870   1.290       .  A
O857       Co865   2.050       .  S
O858        C871   1.225       .  A
O858       Co866   1.879       .  S
O859        C872   1.282       .  A
O859       Co867   2.012       .  S
O860        C873   1.274       .  A
O860       Co868   1.995       .  S
O861        C873   1.287       .  A
O861       Co866   2.064       .  S
O862        C872   1.249       .  A
O862       Co865   1.876       .  S
O863        C870   1.274       .  A
O863       Co868   1.970       .  S
O864        C871   1.274       .  A
O864       Co867   2.058       .  S
Co865       O869   1.876       .  S
Co866       O869   1.937       .  S
Co867       O869   2.113       .  S
Co868       O869   2.004       .  S
C870       C3292   1.491       .  S
C871       C3376   1.392       .  S
C872       C3340   1.396       .  S
C873       C3301   1.520       .  S
O874        C882   1.228       .  A
O874       Co894   1.915       .  S
O875        C883   1.299       .  A
O875       Co895   2.036       .  S
O876        C884   1.267       .  A
O876       Co896   1.990       .  S
O877        C885   1.299       .  A
O877       Co897   2.100       .  S
O878        C884   1.242       .  A
O878       Co895   1.923       .  S
O879        C885   1.276       .  A
O879       Co894   1.945       .  S
O880        C883   1.288       .  A
O880       Co897   1.993       .  S
O881        C882   1.252       .  A
O881       Co896   1.992       .  S
C882       C3436   1.406       .  S
C883       C3304   1.522       .  S
C884       C3385   1.436       .  S
C885       C3265   1.518       .  S
O886        C899   1.259       .  A
O886       Co894   1.905       .  S
O887        C900   1.291       .  A
O887       Co895   2.066       .  S
O888        C901   1.276       .  A
O888       Co896   1.991       .  S
O889        C902   1.276       .  A
O889       Co897   2.015       .  S
O890        C902   1.254       .  A
O890       Co895   1.935       .  S
O891        C901   1.293       .  A
O891       Co894   2.063       .  S
O892        C899   1.299       .  A
O892       Co897   2.088       .  S
O893        C900   1.270       .  A
O893       Co896   1.987       .  S
Co894       O898   1.889       .  S
Co895       O898   2.013       .  S
Co896       O898   2.075       .  S
Co897       O898   2.061       .  S
C899       C3253   1.447       .  S
C902       C3532   1.440       .  S
O903        C911   1.239       .  A
O903       Co923   1.852       .  S
O904        C912   1.288       .  A
O904       Co924   2.061       .  S
O905        C913   1.271       .  A
O905       Co925   2.023       .  S
O906        C914   1.275       .  A
O906       Co926   1.970       .  S
O907        C913   1.240       .  A
O907       Co924   1.907       .  S
O908        C914   1.291       .  A
O908       Co923   2.052       .  S
O909        C912   1.273       .  A
O909       Co926   1.987       .  S
O910        C911   1.289       .  A
O910       Co925   2.068       .  S
C911       C3325   1.424       .  S
C912       C3268   1.517       .  S
C913       C3424   1.423       .  S
C914       C3289   1.489       .  S
O915        C928   1.262       .  A
O915       Co923   1.950       .  S
O916        C929   1.296       .  A
O916       Co924   2.009       .  S
O917        C930   1.301       .  A
O917       Co925   2.113       .  S
O918        C931   1.265       .  A
O918       Co926   1.973       .  S
O919        C931   1.259       .  A
O919       Co924   1.938       .  S
O920        C930   1.287       .  A
O920       Co923   1.949       .  S
O921        C928   1.263       .  A
O921       Co926   1.985       .  S
O922        C929   1.295       .  A
O922       Co925   2.010       .  S
Co923       O927   1.896       .  S
Co924       O927   1.981       .  S
Co925       O927   2.076       .  S
Co926       O927   2.005       .  S
C928       C3229   1.460       .  S
C931       C3241   1.451       .  S
O932        C940   1.281       .  A
O932       Co952   1.918       .  S
O933        C941   1.263       .  A
O933       Co953   1.949       .  S
O934        C942   1.297       .  A
O934       Co954   2.026       .  S
O935        C943   1.260       .  A
O935       Co955   1.970       .  S
O936        C942   1.303       .  A
O936       Co953   2.027       .  S
O937        C943   1.260       .  A
O937       Co952   1.950       .  S
O938        C941   1.266       .  A
O938       Co955   1.977       .  S
O939        C940   1.313       .  A
O939       Co954   2.151       .  S
C941       C3169   1.458       .  S
C942       C2006   1.519       .  S
C943       C3157   1.457       .  S
O944        C957   1.290       .  A
O944       Co952   2.070       .  S
O945        C958   1.223       .  A
O945       Co953   1.882       .  S
O946        C959   1.288       .  A
O946       Co954   2.037       .  S
O947        C960   1.265       .  A
O947       Co955   1.950       .  S
O948        C960   1.291       .  A
O948       Co953   2.064       .  S
O949        C959   1.251       .  A
O949       Co952   1.899       .  S
O950        C957   1.268       .  A
O950       Co955   1.961       .  S
O951        C958   1.275       .  A
O951       Co954   2.062       .  S
Co952       O956   1.883       .  S
Co953       O956   1.981       .  S
Co954       O956   2.092       .  S
Co955       O956   2.005       .  S
C957       C3205   1.501       .  S
C958       C3193   1.426       .  S
C959       C3181   1.419       .  S
C960       C3217   1.502       .  S
O961        C969   1.292       .  A
O961       Co981   1.958       .  S
O962        C970   1.268       .  A
O962       Co982   1.931       .  S
O963        C971   1.288       .  A
O963       Co983   1.984       .  S
O964        C972   1.252       .  A
O964       Co984   1.945       .  S
O965        C971   1.306       .  A
O965       Co982   2.046       .  S
O966        C972   1.269       .  A
O966       Co981   1.971       .  S
O967        C970   1.278       .  A
O967       Co984   2.004       .  S
O968        C969   1.309       .  A
O968       Co983   2.134       .  S
C970       C3688   1.460       .  S
C972       C3109   1.445       .  S
O973        C986   1.295       .  A
O973       Co981   2.057       .  S
O974        C987   1.227       .  A
O974       Co982   1.896       .  S
O975        C988   1.284       .  A
O975       Co983   2.011       .  S
O976        C989   1.271       .  A
O976       Co984   1.983       .  S
O977        C989   1.291       .  A
O977       Co982   2.070       .  S
O978        C988   1.238       .  A
O978       Co981   1.890       .  S
O979        C986   1.287       .  A
O979       Co984   1.991       .  S
O980        C987   1.269       .  A
O980       Co983   2.030       .  S
Co981       O985   1.912       .  S
Co982       O985   2.030       .  S
Co983       O985   2.046       .  S
Co984       O985   1.976       .  S
C986       C3220   1.502       .  S
C987       C3121   1.438       .  S
C988       C3133   1.396       .  S
C989       C3145   1.511       .  S
O990        C998   1.284       .  A
O990      Co1010   1.951       .  S
O991        C999   1.264       .  A
O991      Co1011   1.951       .  S
O992       C1000   1.292       .  A
O992      Co1012   2.007       .  S
O993       C1001   1.262       .  A
O993      Co1013   1.965       .  S
O994       C1000   1.302       .  A
O994      Co1011   2.028       .  S
O995       C1001   1.255       .  A
O995      Co1010   1.933       .  S
O996        C999   1.267       .  A
O996      Co1013   1.986       .  S
O997        C998   1.310       .  A
O997      Co1012   2.139       .  S
C999       C3073   1.461       .  S
C1001      C3637   1.452       .  S
O1002      C1015   1.294       .  A
O1002     Co1010   2.074       .  S
O1003      C1016   1.219       .  A
O1003     Co1011   1.869       .  S
O1004      C1017   1.288       .  A
O1004     Co1012   2.049       .  S
O1005      C1018   1.271       .  A
O1005     Co1013   1.975       .  S
O1006      C1018   1.289       .  A
O1006     Co1011   2.061       .  S
O1007      C1017   1.250       .  A
O1007     Co1010   1.883       .  S
O1008      C1015   1.274       .  A
O1008     Co1013   1.975       .  S
O1009      C1016   1.274       .  A
O1009     Co1012   2.032       .  S
Co1010     O1014   1.897       .  S
Co1011     O1014   1.989       .  S
Co1012     O1014   2.079       .  S
Co1013     O1014   2.003       .  S
C1015      C3148   1.514       .  S
C1016      C3097   1.428       .  S
C1017      C3085   1.415       .  S
C1018      C3208   1.506       .  S
O1019      C1027   1.290       .  A
O1019     Co1039   1.961       .  S
O1020      C1028   1.261       .  A
O1020     Co1040   1.942       .  S
O1021      C1029   1.294       .  A
O1021     Co1041   2.018       .  S
O1022      C1030   1.263       .  A
O1022     Co1042   1.990       .  S
O1023      C1029   1.296       .  A
O1023     Co1040   2.020       .  S
O1024      C1030   1.258       .  A
O1024     Co1039   1.940       .  S
O1025      C1028   1.268       .  A
O1025     Co1042   1.976       .  S
O1026      C1027   1.304       .  A
O1026     Co1041   2.124       .  S
C1028      C3544   1.454       .  S
C1029      C1984   1.507       .  S
C1030      C3037   1.458       .  S
O1031      C1044   1.298       .  A
O1031     Co1039   2.073       .  S
O1032      C1045   1.238       .  A
O1032     Co1040   1.921       .  S
O1033      C1046   1.290       .  A
O1033     Co1041   2.059       .  S
O1034      C1047   1.273       .  A
O1034     Co1042   1.989       .  S
O1035      C1047   1.282       .  A
O1035     Co1040   2.044       .  S
O1036      C1046   1.235       .  A
O1036     Co1039   1.845       .  S
O1037      C1044   1.278       .  A
O1037     Co1042   1.983       .  S
O1038      C1045   1.273       .  A
O1038     Co1041   2.023       .  S
Co1039     O1043   1.885       .  S
Co1040     O1043   1.991       .  S
Co1041     O1043   2.085       .  S
Co1042     O1043   2.005       .  S
C1044      C3049   1.517       .  S
C1045      C3196   1.426       .  S
C1046      C3136   1.407       .  S
C1047      C3061   1.503       .  S
O1048      C1056   1.279       .  A
O1048     Co1068   1.902       .  S
O1049      C1057   1.256       .  A
O1049     Co1069   1.922       .  S
O1050      C1058   1.300       .  A
O1050     Co1070   2.047       .  S
O1051      C1059   1.256       .  A
O1051     Co1071   1.958       .  S
O1052      C1058   1.299       .  A
O1052     Co1069   2.038       .  S
O1053      C1059   1.255       .  A
O1053     Co1068   1.952       .  S
O1054      C1057   1.272       .  A
O1054     Co1071   1.993       .  S
O1055      C1056   1.317       .  A
O1055     Co1070   2.162       .  S
C1057      C3013   1.417       .  S
C1059      C3001   1.451       .  S
O1060      C1073   1.291       .  A
O1060     Co1068   2.059       .  S
O1061      C1074   1.228       .  A
O1061     Co1069   1.869       .  S
O1062      C1075   1.292       .  A
O1062     Co1070   2.050       .  S
O1063      C1076   1.267       .  A
O1063     Co1071   1.974       .  S
O1064      C1076   1.291       .  A
O1064     Co1069   2.078       .  S
O1065      C1075   1.247       .  A
O1065     Co1068   1.893       .  S
O1066      C1073   1.275       .  A
O1066     Co1071   1.973       .  S
O1067      C1074   1.276       .  A
O1067     Co1070   2.044       .  S
Co1068     O1072   1.879       .  S
Co1069     O1072   1.987       .  S
Co1070     O1072   2.085       .  S
Co1071     O1072   2.006       .  S
C1073      C3025   1.495       .  S
C1074      C3124   1.440       .  S
C1075      C3088   1.413       .  S
C1076      C3052   1.514       .  S
O1077      C1085   1.295       .  A
O1077     Co1097   1.970       .  S
O1078      C1086   1.276       .  A
O1078     Co1098   1.971       .  S
O1079      C1087   1.286       .  A
O1079     Co1099   1.970       .  S
O1080      C1088   1.264       .  A
O1080     Co1100   1.973       .  S
O1081      C1087   1.315       .  A
O1081     Co1098   2.070       .  S
O1082      C1088   1.268       .  A
O1082     Co1097   1.951       .  S
O1083      C1086   1.266       .  A
O1083     Co1100   1.966       .  S
O1084      C1085   1.303       .  A
O1084     Co1099   2.111       .  S
C1086      C2989   1.458       .  S
C1088      C3508   1.454       .  S
O1089      C1102   1.298       .  A
O1089     Co1097   2.080       .  S
O1090      C1103   1.228       .  A
O1090     Co1098   1.905       .  S
O1091      C1104   1.285       .  A
O1091     Co1099   2.054       .  S
O1092      C1105   1.273       .  A
O1092     Co1100   1.970       .  S
O1093      C1105   1.294       .  A
O1093     Co1098   2.073       .  S
O1094      C1104   1.239       .  A
O1094     Co1097   1.886       .  S
O1095      C1102   1.273       .  A
O1095     Co1100   1.950       .  S
O1096      C1103   1.266       .  A
O1096     Co1099   1.977       .  S
Co1097     O1101   1.911       .  S
Co1098     O1101   2.026       .  S
Co1099     O1101   2.017       .  S
Co1100     O1101   1.976       .  S
C1102      C3064   1.504       .  S
C1103      C3100   1.428       .  S
C1104      C3184   1.428       .  S
C1105      C3028   1.504       .  S
O1106      C1114   1.276       .  A
O1106     Co1126   1.894       .  S
O1107      C1115   1.244       .  A
O1107     Co1127   1.920       .  S
O1108      C1116   1.265       .  A
O1108     Co1128   1.901       .  S
O1109      C1117   1.263       .  A
O1109     Co1129   1.962       .  S
O1110      C1116   1.304       .  A
O1110     Co1127   2.129       .  S
O1111      C1117   1.265       .  A
O1111     Co1126   1.953       .  S
O1112      C1115   1.251       .  A
O1112     Co1129   2.001       .  S
O1113      C1114   1.313       .  A
O1113     Co1128   2.146       .  S
C1115      C3160   1.446       .  S
C1117      C2929   1.428       .  S
O1118      C1131   1.284       .  A
O1118     Co1126   2.034       .  S
O1119      C1132   1.249       .  A
O1119     Co1127   1.871       .  S
O1120      C1133   1.276       .  A
O1120     Co1128   2.016       .  S
O1121      C1134   1.275       .  A
O1121     Co1129   1.883       .  S
O1122      C1134   1.313       .  A
O1122     Co1127   2.143       .  S
O1123      C1133   1.255       .  A
O1123     Co1126   1.945       .  S
O1124      C1131   1.278       .  A
O1124     Co1129   1.974       .  S
O1125      C1132   1.295       .  A
O1125     Co1128   2.088       .  S
Co1126     O1130   1.881       .  S
Co1127     O1130   2.090       .  S
Co1128     O1130   1.951       .  S
Co1129     O1130   1.922       .  S
C1131      C2968   1.485       .  S
C1132      C2953   1.422       .  S
C1133      C2944   1.437       .  S
C1134      C2977   1.507       .  S
O1135      C1143   1.246       .  A
O1135     Co1155   1.908       .  S
O1136      C1144   1.307       .  A
O1136     Co1156   2.113       .  S
O1137      C1145   1.287       .  A
O1137     Co1157   2.030       .  S
O1138      C1146   1.281       .  A
O1138     Co1158   1.991       .  S
O1139      C1145   1.245       .  A
O1139     Co1156   1.861       .  S
O1140      C1146   1.285       .  A
O1140     Co1155   2.051       .  S
O1141      C1144   1.282       .  A
O1141     Co1158   1.902       .  S
O1142      C1143   1.288       .  A
O1142     Co1157   2.049       .  S
C1143      C2905   1.432       .  S
C1144      C2980   1.512       .  S
C1145      C2893   1.399       .  S
C1146      C2917   1.515       .  S
O1147      C1160   1.270       .  A
O1147     Co1155   1.932       .  S
O1148      C1161   1.307       .  A
O1148     Co1156   2.153       .  S
O1149      C1162   1.305       .  A
O1149     Co1157   2.119       .  S
O1150      C1163   1.252       .  A
O1150     Co1158   1.993       .  S
O1151      C1163   1.246       .  A
O1151     Co1156   1.921       .  S
O1152      C1162   1.284       .  A
O1152     Co1155   1.931       .  S
O1153      C1160   1.266       .  A
O1153     Co1158   1.958       .  S
O1154      C1161   1.273       .  A
O1154     Co1157   1.942       .  S
Co1155     O1159   1.887       .  S
Co1156     O1159   2.094       .  S
Co1157     O1159   1.965       .  S
Co1158     O1159   1.942       .  S
C1160      C3316   1.409       .  S
C1163      C3076   1.452       .  S
O1164      C1172   1.252       .  A
O1164     Co1184   1.924       .  S
O1165      C1173   1.297       .  A
O1165     Co1185   2.093       .  S
O1166      C1174   1.273       .  A
O1166     Co1186   2.055       .  S
O1167      C1175   1.267       .  A
O1167     Co1187   1.947       .  S
O1168      C1174   1.224       .  A
O1168     Co1185   1.881       .  S
O1169      C1175   1.288       .  A
O1169     Co1184   2.059       .  S
O1170      C1173   1.262       .  A
O1170     Co1187   1.951       .  S
O1171      C1172   1.278       .  A
O1171     Co1186   2.009       .  S
C1172      C2881   1.417       .  S
C1173      C2920   1.514       .  S
C1174      C2869   1.445       .  S
C1175      C2965   1.485       .  S
O1176      C1189   1.263       .  A
O1176     Co1184   1.958       .  S
O1177      C1190   1.310       .  A
O1177     Co1185   2.053       .  S
O1178      C1191   1.314       .  A
O1178     Co1186   2.147       .  S
O1179      C1192   1.273       .  A
O1179     Co1187   1.997       .  S
O1180      C1192   1.267       .  A
O1180     Co1185   1.947       .  S
O1181      C1191   1.281       .  A
O1181     Co1184   1.916       .  S
O1182      C1189   1.260       .  A
O1182     Co1187   1.975       .  S
O1183      C1190   1.282       .  A
O1183     Co1186   1.941       .  S
Co1184     O1188   1.912       .  S
Co1185     O1188   2.031       .  S
Co1186     O1188   2.013       .  S
Co1187     O1188   1.972       .  S
C1189      C2857   1.457       .  S
C1192      C3352   1.463       .  S
O1193      C1201   1.286       .  A
O1193     Co1213   2.032       .  S
O1194      C1202   1.251       .  A
O1194     Co1214   1.942       .  S
O1195      C1203   1.275       .  A
O1195     Co1215   2.007       .  S
O1196      C1204   1.295       .  A
O1196     Co1216   2.078       .  S
O1197      C1203   1.280       .  A
O1197     Co1214   2.026       .  S
O1198      C1204   1.259       .  A
O1198     Co1213   1.919       .  S
O1199      C1202   1.275       .  A
O1199     Co1216   2.027       .  S
O1200      C1201   1.276       .  A
O1200     Co1215   1.994       .  S
C1202      C3040   1.446       .  S
C1204      C3256   1.449       .  S
O1205      C1218   1.271       .  A
O1205     Co1213   1.921       .  S
O1206      C1219   1.238       .  A
O1206     Co1214   1.936       .  S
O1207      C1220   1.259       .  A
O1207     Co1215   2.025       .  S
O1208      C1221   1.286       .  A
O1208     Co1216   1.984       .  S
O1209      C1221   1.291       .  A
O1209     Co1214   2.021       .  S
O1210      C1220   1.229       .  A
O1210     Co1213   1.945       .  S
O1211      C1218   1.299       .  A
O1211     Co1216   2.094       .  S
O1212      C1219   1.264       .  A
O1212     Co1215   2.005       .  S
Co1213     O1217   1.878       .  S
Co1214     O1217   1.985       .  S
Co1215     O1217   2.098       .  S
Co1216     O1217   2.067       .  S
C1218      C2845   1.495       .  S
C1219      C2884   1.421       .  S
C1220      C2941   1.448       .  S
C1221      C2833   1.508       .  S
O1222      C1230   1.226       .  A
O1222     Co1242   1.889       .  S
O1223      C1231   1.291       .  A
O1223     Co1243   2.066       .  S
O1224      C1232   1.288       .  A
O1224     Co1244   2.033       .  S
O1225      C1233   1.268       .  A
O1225     Co1245   1.975       .  S
O1226      C1232   1.252       .  A
O1226     Co1243   1.879       .  S
O1227      C1233   1.292       .  A
O1227     Co1242   2.064       .  S
O1228      C1231   1.270       .  A
O1228     Co1245   1.964       .  S
O1229      C1230   1.286       .  A
O1229     Co1244   2.085       .  S
C1230      C2908   1.433       .  S
C1231      C2836   1.510       .  S
C1232      C2872   1.444       .  S
C1233      C2821   1.506       .  S
O1234      C1247   1.260       .  A
O1234     Co1242   1.951       .  S
O1235      C1248   1.281       .  A
O1235     Co1243   1.948       .  S
O1236      C1249   1.291       .  A
O1236     Co1244   2.004       .  S
O1237      C1250   1.258       .  A
O1237     Co1245   1.963       .  S
O1238      C1250   1.251       .  A
O1238     Co1243   1.916       .  S
O1239      C1249   1.302       .  A
O1239     Co1242   2.019       .  S
O1240      C1247   1.268       .  A
O1240     Co1245   1.988       .  S
O1241      C1248   1.315       .  A
O1241     Co1244   2.170       .  S
Co1242     O1246   1.964       .  S
Co1243     O1246   1.892       .  S
Co1244     O1246   2.084       .  S
Co1245     O1246   2.009       .  S
C1247      C2809   1.465       .  S
C1250      C3016   1.412       .  S
O1251      C1259   1.247       .  A
O1251     Co1271   1.884       .  S
O1252      C1260   1.289       .  A
O1252     Co1272   2.058       .  S
O1253      C1261   1.271       .  A
O1253     Co1273   1.996       .  S
O1254      C1262   1.273       .  A
O1254     Co1274   1.971       .  S
O1255      C1261   1.232       .  A
O1255     Co1272   1.872       .  S
O1256      C1262   1.287       .  A
O1256     Co1271   2.043       .  S
O1257      C1260   1.272       .  A
O1257     Co1274   1.991       .  S
O1258      C1259   1.287       .  A
O1258     Co1273   2.060       .  S
C1259      C2956   1.425       .  S
C1260      C2824   1.511       .  S
C1261      C2896   1.385       .  S
C1262      C2848   1.499       .  S
O1263      C1276   1.258       .  A
O1263     Co1271   1.938       .  S
O1264      C1277   1.301       .  A
O1264     Co1272   2.034       .  S
O1265      C1278   1.302       .  A
O1265     Co1273   2.109       .  S
O1266      C1279   1.269       .  A
O1266     Co1274   1.985       .  S
O1267      C1279   1.261       .  A
O1267     Co1272   1.943       .  S
O1268      C1278   1.282       .  A
O1268     Co1271   1.955       .  S
O1269      C1276   1.261       .  A
O1269     Co1274   1.965       .  S
O1270      C1277   1.294       .  A
O1270     Co1273   2.016       .  S
Co1271     O1275   1.904       .  S
Co1272     O1275   1.969       .  S
Co1273     O1275   2.077       .  S
Co1274     O1275   1.997       .  S
C1276      C3244   1.450       .  S
C1279      C2797   1.459       .  S
O1280      C1288   1.232       .  A
O1280     Co1300   1.931       .  S
O1281      C1289   1.257       .  A
O1281     Co1301   1.977       .  S
O1282      C1290   1.275       .  A
O1282     Co1302   1.973       .  S
O1283      C1291   1.284       .  A
O1283     Co1303   1.958       .  S
O1284      C1290   1.269       .  A
O1284     Co1301   1.939       .  S
O1285      C1291   1.302       .  A
O1285     Co1300   2.042       .  S
O1286      C1289   1.262       .  A
O1286     Co1303   1.974       .  S
O1287      C1288   1.286       .  A
O1287     Co1302   2.084       .  S
C1288      C2761   1.442       .  S
C1289      C2788   1.488       .  S
C1290      C2749   1.412       .  S
C1291      C2776   1.506       .  S
O1292      C1305   1.260       .  A
O1292     Co1300   1.963       .  S
O1293      C1306   1.271       .  A
O1293     Co1301   2.011       .  S
O1294      C1307   1.269       .  A
O1294     Co1302   1.838       .  S
O1295      C1308   1.301       .  A
O1295     Co1303   2.062       .  S
O1296      C1308   1.277       .  A
O1296     Co1301   1.926       .  S
O1297      C1307   1.328       .  A
O1297     Co1300   2.183       .  S
O1298      C1305   1.274       .  A
O1298     Co1303   2.014       .  S
O1299      C1306   1.269       .  A
O1299     Co1302   2.023       .  S
Co1300     O1304   2.059       .  S
Co1301     O1304   2.002       .  S
Co1302     O1304   1.888       .  S
Co1303     O1304   1.963       .  S
C1305      C2737   1.453       .  S
C1308      C2860   1.445       .  S
O1309      C1317   1.288       .  A
O1309     Co1329   1.948       .  S
O1310      C1318   1.262       .  A
O1310     Co1330   1.931       .  S
O1311      C1319   1.294       .  A
O1311     Co1331   2.015       .  S
O1312      C1320   1.250       .  A
O1312     Co1332   1.939       .  S
O1313      C1319   1.301       .  A
O1313     Co1330   2.033       .  S
O1314      C1320   1.266       .  A
O1314     Co1329   1.969       .  S
O1315      C1318   1.276       .  A
O1315     Co1332   2.002       .  S
O1316      C1317   1.308       .  A
O1316     Co1331   2.126       .  S
C1318      C2689   1.458       .  S
C1320      C2677   1.451       .  S
O1321      C1334   1.296       .  A
O1321     Co1329   2.073       .  S
O1322      C1335   1.226       .  A
O1322     Co1330   1.884       .  S
O1323      C1336   1.284       .  A
O1323     Co1331   2.027       .  S
O1324      C1337   1.267       .  A
O1324     Co1332   1.977       .  S
O1325      C1337   1.285       .  A
O1325     Co1330   2.056       .  S
O1326      C1336   1.249       .  A
O1326     Co1329   1.893       .  S
O1327      C1334   1.281       .  A
O1327     Co1332   1.974       .  S
O1328      C1335   1.274       .  A
O1328     Co1331   2.053       .  S
Co1329     O1333   1.896       .  S
Co1330     O1333   1.984       .  S
Co1331     O1333   2.083       .  S
Co1332     O1333   1.993       .  S
C1334      C2773   1.512       .  S
C1335      C2704   1.410       .  S
C1336      C2716   1.417       .  S
C1337      C2728   1.500       .  S
O1338      C1346   1.301       .  A
O1338     Co1358   2.030       .  S
O1339      C1347   1.258       .  A
O1339     Co1359   1.947       .  S
O1340      C1348   1.309       .  A
O1340     Co1360   2.130       .  S
O1341      C1349   1.272       .  A
O1341     Co1361   1.986       .  S
O1342      C1348   1.285       .  A
O1342     Co1359   1.939       .  S
O1343      C1349   1.267       .  A
O1343     Co1358   1.940       .  S
O1344      C1347   1.254       .  A
O1344     Co1361   1.954       .  S
O1345      C1346   1.294       .  A
O1345     Co1360   2.021       .  S
C1347      C2932   1.423       .  S
C1349      C2641   1.457       .  S
O1350      C1363   1.284       .  A
O1350     Co1358   2.058       .  S
O1351      C1364   1.247       .  A
O1351     Co1359   1.893       .  S
O1352      C1365   1.275       .  A
O1352     Co1360   2.015       .  S
O1353      C1366   1.270       .  A
O1353     Co1361   1.946       .  S
O1354      C1366   1.295       .  A
O1354     Co1359   2.065       .  S
O1355      C1365   1.228       .  A
O1355     Co1358   1.888       .  S
O1356      C1363   1.264       .  A
O1356     Co1361   1.973       .  S
O1357      C1364   1.291       .  A
O1357     Co1360   2.065       .  S
Co1358     O1362   1.980       .  S
Co1359     O1362   1.892       .  S
Co1360     O1362   2.066       .  S
Co1361     O1362   1.983       .  S
C1363      C2725   1.500       .  S
C1364      C2665   1.436       .  S
C1365      C2653   1.412       .  S
C1366      C2785   1.488       .  S
O1367      C1375   1.254       .  A
O1367     Co1387   1.920       .  S
O1368      C1376   1.293       .  A
O1368     Co1388   2.073       .  S
O1369      C1377   1.278       .  A
O1369     Co1389   2.052       .  S
O1370      C1378   1.275       .  A
O1370     Co1390   1.977       .  S
O1371      C1377   1.225       .  A
O1371     Co1388   1.875       .  S
O1372      C1378   1.287       .  A
O1372     Co1387   2.052       .  S
O1373      C1376   1.263       .  A
O1373     Co1390   1.963       .  S
O1374      C1375   1.287       .  A
O1374     Co1389   2.042       .  S
C1375      C2764   1.437       .  S
C1376      C2617   1.501       .  S
C1377      C2713   1.413       .  S
C1378      C2629   1.497       .  S
O1379      C1392   1.258       .  A
O1379     Co1387   1.965       .  S
O1380      C1393   1.308       .  A
O1380     Co1388   2.051       .  S
O1381      C1394   1.311       .  A
O1381     Co1389   2.148       .  S
O1382      C1395   1.275       .  A
O1382     Co1390   2.013       .  S
O1383      C1395   1.261       .  A
O1383     Co1388   1.937       .  S
O1384      C1394   1.275       .  A
O1384     Co1387   1.897       .  S
O1385      C1392   1.254       .  A
O1385     Co1390   1.950       .  S
O1386      C1393   1.293       .  A
O1386     Co1389   2.010       .  S
Co1387     O1391   1.886       .  S
Co1388     O1391   1.979       .  S
Co1389     O1391   2.086       .  S
Co1390     O1391   2.010       .  S
C1392      C2608   1.455       .  S
C1395      C2812   1.465       .  S
O1396      C1404   1.243       .  A
O1396     Co1416   1.869       .  S
O1397      C1405   1.288       .  A
O1397     Co1417   2.064       .  S
O1398      C1406   1.271       .  A
O1398     Co1418   2.036       .  S
O1399      C1407   1.269       .  A
O1399     Co1419   1.963       .  S
O1400      C1406   1.231       .  A
O1400     Co1417   1.886       .  S
O1401      C1407   1.292       .  A
O1401     Co1416   2.073       .  S
O1402      C1405   1.264       .  A
O1402     Co1419   1.950       .  S
O1403      C1404   1.294       .  A
O1403     Co1418   2.080       .  S
C1404      C2668   1.441       .  S
C1405      C2632   1.498       .  S
C1406      C2752   1.429       .  S
C1407      C2593   1.517       .  S
O1408      C1421   1.257       .  A
O1408     Co1416   1.945       .  S
O1409      C1422   1.299       .  A
O1409     Co1417   2.022       .  S
O1410      C1423   1.310       .  A
O1410     Co1418   2.133       .  S
O1411      C1424   1.269       .  A
O1411     Co1419   1.986       .  S
O1412      C1424   1.261       .  A
O1412     Co1417   1.942       .  S
O1413      C1423   1.282       .  A
O1413     Co1416   1.915       .  S
O1414      C1421   1.261       .  A
O1414     Co1419   1.974       .  S
O1415      C1422   1.302       .  A
O1415     Co1418   2.048       .  S
Co1416     O1420   1.862       .  S
Co1417     O1420   1.968       .  S
Co1418     O1420   2.098       .  S
Co1419     O1420   1.998       .  S
C1421      C2569   1.454       .  S
C1424      C2584   1.460       .  S
O1425      C1433   1.297       .  A
O1425     Co1445   1.982       .  S
O1426      C1434   1.249       .  A
O1426     Co1446   1.930       .  S
O1427      C1435   1.264       .  A
O1427     Co1447   1.903       .  S
O1428      C1436   1.273       .  A
O1428     Co1448   1.982       .  S
O1429      C1435   1.293       .  A
O1429     Co1446   2.100       .  S
O1430      C1436   1.277       .  A
O1430     Co1445   1.957       .  S
O1431      C1434   1.251       .  A
O1431     Co1448   1.982       .  S
O1432      C1433   1.298       .  A
O1432     Co1447   2.102       .  S
C1434      C2800   1.447       .  S
C1436      C2557   1.444       .  S
O1437      C1450   1.294       .  A
O1437     Co1445   2.059       .  S
O1438      C1451   1.253       .  A
O1438     Co1446   1.882       .  S
O1439      C1452   1.282       .  A
O1439     Co1447   2.045       .  S
O1440      C1453   1.282       .  A
O1440     Co1448   1.927       .  S
O1441      C1453   1.300       .  A
O1441     Co1446   2.099       .  S
O1442      C1452   1.239       .  A
O1442     Co1445   1.880       .  S
O1443      C1450   1.283       .  A
O1443     Co1448   1.984       .  S
O1444      C1451   1.286       .  A
O1444     Co1447   2.034       .  S
Co1445     O1449   1.898       .  S
Co1446     O1449   2.106       .  S
Co1447     O1449   1.973       .  S
Co1448     O1449   1.932       .  S
C1450      C2596   1.506       .  S
C1451      C2701   1.425       .  S
C1452      C2656   1.420       .  S
C1453      C2620   1.508       .  S
O1454      C1462   1.301       .  A
O1454     Co1474   2.041       .  S
O1455      C1463   1.276       .  A
O1455     Co1475   1.950       .  S
O1456      C1464   1.260       .  A
O1456     Co1476   2.004       .  S
O1457      C1465   1.257       .  A
O1457     Co1477   1.985       .  S
O1458      C1464   1.273       .  A
O1458     Co1475   2.023       .  S
O1459      C1465   1.249       .  A
O1459     Co1474   1.927       .  S
O1460      C1463   1.276       .  A
O1460     Co1477   1.985       .  S
O1461      C1462   1.284       .  A
O1461     Co1476   1.960       .  S
C1463      C3112   1.448       .  S
C1465      C2497   1.449       .  S
O1466      C1479   1.316       .  A
O1466     Co1474   2.147       .  S
O1467      C1480   1.271       .  A
O1467     Co1475   1.932       .  S
O1468      C1481   1.275       .  A
O1468     Co1476   2.046       .  S
O1469      C1482   1.278       .  A
O1469     Co1477   1.981       .  S
O1470      C1482   1.273       .  A
O1470     Co1475   2.004       .  S
O1471      C1481   1.232       .  A
O1471     Co1474   1.916       .  S
O1472      C1479   1.283       .  A
O1472     Co1477   1.902       .  S
O1473      C1480   1.289       .  A
O1473     Co1476   1.998       .  S
Co1474     O1478   2.019       .  S
Co1475     O1478   1.971       .  S
Co1476     O1478   1.983       .  S
Co1477     O1478   1.885       .  S
C1479      C2536   1.523       .  S
C1480      C2521   1.405       .  S
C1481      C2512   1.430       .  S
C1482      C2545   1.481       .  S
O1483      C1491   1.262       .  A
O1483     Co1503   1.906       .  S
O1484      C1492   1.295       .  A
O1484     Co1504   2.072       .  S
O1485      C1493   1.289       .  A
O1485     Co1505   2.048       .  S
O1486      C1494   1.266       .  A
O1486     Co1506   1.981       .  S
O1487      C1493   1.247       .  A
O1487     Co1504   1.896       .  S
O1488      C1494   1.308       .  A
O1488     Co1503   2.117       .  S
O1489      C1492   1.264       .  A
O1489     Co1506   1.936       .  S
O1490      C1491   1.278       .  A
O1490     Co1505   2.043       .  S
C1491      C2473   1.443       .  S
C1492      C2548   1.492       .  S
C1493      C2464   1.428       .  S
C1494      C2488   1.500       .  S
O1495      C1508   1.254       .  A
O1495     Co1503   1.936       .  S
O1496      C1509   1.282       .  A
O1496     Co1504   1.910       .  S
O1497      C1510   1.292       .  A
O1497     Co1505   2.023       .  S
O1498      C1511   1.260       .  A
O1498     Co1506   1.968       .  S
O1499      C1511   1.254       .  A
O1499     Co1504   1.949       .  S
O1500      C1510   1.282       .  A
O1500     Co1503   1.977       .  S
O1501      C1508   1.249       .  A
O1501     Co1506   1.943       .  S
O1502      C1509   1.314       .  A
O1502     Co1505   2.155       .  S
Co1503     O1507   1.963       .  S
Co1504     O1507   1.870       .  S
Co1505     O1507   2.085       .  S
Co1506     O1507   2.029       .  S
C1508      C2644   1.436       .  S
C1509      C2016   1.518       .  S
C1511      C3172   1.456       .  S
O1512      C1520   1.248       .  A
O1512     Co1532   1.867       .  S
O1513      C1521   1.284       .  A
O1513     Co1533   2.049       .  S
O1514      C1522   1.266       .  A
O1514     Co1534   2.008       .  S
O1515      C1523   1.273       .  A
O1515     Co1535   1.975       .  S
O1516      C1522   1.237       .  A
O1516     Co1533   1.913       .  S
O1517      C1523   1.298       .  A
O1517     Co1532   2.083       .  S
O1518      C1521   1.271       .  A
O1518     Co1535   1.994       .  S
O1519      C1520   1.292       .  A
O1519     Co1534   2.072       .  S
C1520      C2449   1.416       .  S
C1521      C2485   1.499       .  S
C1522      C2437   1.416       .  S
C1523      C2533   1.515       .  S
O1524      C1537   1.259       .  A
O1524     Co1532   1.948       .  S
O1525      C1538   1.299       .  A
O1525     Co1533   2.025       .  S
O1526      C1539   1.298       .  A
O1526     Co1534   2.095       .  S
O1527      C1540   1.265       .  A
O1527     Co1535   1.979       .  S
O1528      C1540   1.263       .  A
O1528     Co1533   1.951       .  S
O1529      C1539   1.289       .  A
O1529     Co1532   1.957       .  S
O1530      C1537   1.266       .  A
O1530     Co1535   1.991       .  S
O1531      C1538   1.295       .  A
O1531     Co1534   2.026       .  S
Co1532     O1536   1.896       .  S
Co1533     O1536   1.986       .  S
Co1534     O1536   2.087       .  S
Co1535     O1536   2.005       .  S
C1537      C2425   1.463       .  S
C1540      C2692   1.459       .  S
O1541      C1549   1.246       .  A
O1541     Co1561   1.929       .  S
O1542      C1550   1.277       .  A
O1542     Co1562   2.034       .  S
O1543      C1551   1.296       .  A
O1543     Co1563   2.054       .  S
O1544      C1552   1.297       .  A
O1544     Co1564   1.950       .  S
O1545      C1551   1.258       .  A
O1545     Co1562   1.896       .  S
O1546      C1552   1.310       .  A
O1546     Co1561   2.049       .  S
O1547      C1550   1.273       .  A
O1547     Co1564   1.990       .  S
O1548      C1549   1.278       .  A
O1548     Co1563   1.986       .  S
C1549      C2476   1.447       .  S
C1550      C2401   1.503       .  S
C1551      C2440   1.432       .  S
C1552      C2413   1.512       .  S
O1553      C1566   1.235       .  A
O1553     Co1561   1.939       .  S
O1554      C1567   1.283       .  A
O1554     Co1562   2.021       .  S
O1555      C1568   1.271       .  A
O1555     Co1563   1.889       .  S
O1556      C1569   1.282       .  A
O1556     Co1564   2.006       .  S
O1557      C1569   1.274       .  A
O1557     Co1562   1.932       .  S
O1558      C1568   1.308       .  A
O1558     Co1561   2.123       .  S
O1559      C1566   1.244       .  A
O1559     Co1564   1.987       .  S
O1560      C1567   1.260       .  A
O1560     Co1563   1.965       .  S
Co1561     O1565   2.040       .  S
Co1562     O1565   1.989       .  S
Co1563     O1565   1.872       .  S
Co1564     O1565   1.975       .  S
C1566      C2389   1.444       .  S
C1569      C2992   1.453       .  S
O1570      C1578   1.280       .  A
O1570     Co1590   1.914       .  S
O1571      C1579   1.259       .  A
O1571     Co1591   1.937       .  S
O1572      C1580   1.301       .  A
O1572     Co1592   2.040       .  S
O1573      C1581   1.264       .  A
O1573     Co1593   1.983       .  S
O1574      C1580   1.296       .  A
O1574     Co1591   2.006       .  S
O1575      C1581   1.255       .  A
O1575     Co1590   1.934       .  S
O1576      C1579   1.264       .  A
O1576     Co1593   1.981       .  S
O1577      C1578   1.308       .  A
O1577     Co1592   2.136       .  S
C1579      C3004   1.452       .  S
C1581      C2605   1.458       .  S
O1582      C1595   1.291       .  A
O1582     Co1590   2.070       .  S
O1583      C1596   1.236       .  A
O1583     Co1591   1.886       .  S
O1584      C1597   1.290       .  A
O1584     Co1592   2.062       .  S
O1585      C1598   1.268       .  A
O1585     Co1593   1.969       .  S
O1586      C1598   1.287       .  A
O1586     Co1591   2.058       .  S
O1587      C1597   1.250       .  A
O1587     Co1590   1.879       .  S
O1588      C1595   1.269       .  A
O1588     Co1593   1.970       .  S
O1589      C1596   1.275       .  A
O1589     Co1592   2.035       .  S
Co1590     O1594   1.878       .  S
Co1591     O1594   1.963       .  S
Co1592     O1594   2.098       .  S
Co1593     O1594   2.009       .  S
C1595      C2380   1.505       .  S
C1596      C2452   1.422       .  S
C1597      C2509   1.426       .  S
C1598      C2404   1.510       .  S
O1599      C1607   1.221       .  A
O1599     Co1619   1.873       .  S
O1600      C1608   1.299       .  A
O1600     Co1620   2.086       .  S
O1601      C1609   1.287       .  A
O1601     Co1621   2.055       .  S
O1602      C1610   1.267       .  A
O1602     Co1622   1.980       .  S
O1603      C1609   1.248       .  A
O1603     Co1620   1.889       .  S
O1604      C1610   1.287       .  A
O1604     Co1619   2.064       .  S
O1605      C1608   1.273       .  A
O1605     Co1622   1.958       .  S
O1606      C1607   1.269       .  A
O1606     Co1621   2.024       .  S
C1607      C2524   1.403       .  S
C1608      C2416   1.519       .  S
C1609      C2461   1.429       .  S
C1610      C2377   1.505       .  S
O1611      C1624   1.265       .  A
O1611     Co1619   1.935       .  S
O1612      C1625   1.292       .  A
O1612     Co1620   1.966       .  S
O1613      C1626   1.291       .  A
O1613     Co1621   2.007       .  S
O1614      C1627   1.255       .  A
O1614     Co1622   1.957       .  S
O1615      C1627   1.266       .  A
O1615     Co1620   1.971       .  S
O1616      C1626   1.303       .  A
O1616     Co1619   2.040       .  S
O1617      C1624   1.274       .  A
O1617     Co1622   2.000       .  S
O1618      C1625   1.303       .  A
O1618     Co1621   2.108       .  S
Co1619     O1623   1.983       .  S
Co1620     O1623   1.897       .  S
Co1621     O1623   2.074       .  S
Co1622     O1623   1.983       .  S
C1624      C2581   1.461       .  S
C1625      C1991   1.523       .  S
C1627      C2365   1.450       .  S
O1628      C1636   1.286       .  A
O1628     Co1648   2.047       .  S
O1629      C1637   1.239       .  A
O1629     Co1649   1.936       .  S
O1630      C1638   1.268       .  A
O1630     Co1650   1.897       .  S
O1631      C1639   1.286       .  A
O1631     Co1651   2.019       .  S
O1632      C1638   1.316       .  A
O1632     Co1649   2.153       .  S
O1633      C1639   1.276       .  A
O1633     Co1648   1.934       .  S
O1634      C1637   1.242       .  A
O1634     Co1651   1.973       .  S
O1635      C1636   1.260       .  A
O1635     Co1650   1.981       .  S
C1637      C3364   1.440       .  S
C1639      C2740   1.459       .  S
O1640      C1653   1.275       .  A
O1640     Co1648   2.032       .  S
O1641      C1654   1.244       .  A
O1641     Co1649   1.912       .  S
O1642      C1655   1.294       .  A
O1642     Co1650   2.046       .  S
O1643      C1656   1.295       .  A
O1643     Co1651   1.964       .  S
O1644      C1656   1.310       .  A
O1644     Co1649   2.057       .  S
O1645      C1655   1.260       .  A
O1645     Co1648   1.893       .  S
O1646      C1653   1.269       .  A
O1646     Co1651   1.995       .  S
O1647      C1654   1.280       .  A
O1647     Co1650   2.002       .  S
Co1648     O1652   1.991       .  S
Co1649     O1652   2.043       .  S
Co1650     O1652   1.901       .  S
Co1651     O1652   1.998       .  S
C1653      C2353   1.507       .  S
C1654      C2329   1.441       .  S
C1655      C2320   1.424       .  S
C1656      C2341   1.518       .  S
O1657      C1665   1.324       .  A
O1657     Co1677   2.185       .  S
O1658      C1666   1.275       .  A
O1658     Co1678   1.947       .  S
O1659      C1667   1.265       .  A
O1659     Co1679   2.000       .  S
O1660      C1668   1.277       .  A
O1660     Co1680   2.029       .  S
O1661      C1667   1.274       .  A
O1661     Co1678   2.012       .  S
O1662      C1668   1.252       .  A
O1662     Co1677   1.935       .  S
O1663      C1666   1.293       .  A
O1663     Co1680   2.024       .  S
O1664      C1665   1.265       .  A
O1664     Co1679   1.861       .  S
C1666      C2680   1.435       .  S
C1668      C2269   1.443       .  S
O1669      C1682   1.299       .  A
O1669     Co1677   2.038       .  S
O1670      C1683   1.266       .  A
O1670     Co1678   1.943       .  S
O1671      C1684   1.286       .  A
O1671     Co1679   2.070       .  S
O1672      C1685   1.263       .  A
O1672     Co1680   1.992       .  S
O1673      C1685   1.267       .  A
O1673     Co1678   2.012       .  S
O1674      C1684   1.237       .  A
O1674     Co1677   1.895       .  S
O1675      C1682   1.282       .  A
O1675     Co1680   1.965       .  S
O1676      C1683   1.282       .  A
O1676     Co1679   1.994       .  S
Co1677     O1681   2.058       .  S
Co1678     O1681   2.012       .  S
Co1679     O1681   1.887       .  S
Co1680     O1681   1.988       .  S
C1682      C2305   1.511       .  S
C1683      C2296   1.411       .  S
C1684      C2281   1.435       .  S
C1685      C2356   1.514       .  S
O1686      C1694   1.239       .  A
O1686     Co1706   1.943       .  S
O1687      C1695   1.297       .  A
O1687     Co1707   2.027       .  S
O1688      C1696   1.264       .  A
O1688     Co1708   2.004       .  S
O1689      C1697   1.302       .  A
O1689     Co1709   2.107       .  S
O1690      C1696   1.240       .  A
O1690     Co1707   1.931       .  S
O1691      C1697   1.272       .  A
O1691     Co1706   1.924       .  S
O1692      C1695   1.290       .  A
O1692     Co1709   1.997       .  S
O1693      C1694   1.256       .  A
O1693     Co1708   1.985       .  S
C1694      C2260   1.423       .  S
C1695      C2344   1.514       .  S
C1696      C2245   1.425       .  S
C1697      C2308   1.512       .  S
O1698      C1711   1.256       .  A
O1698     Co1706   1.904       .  S
O1699      C1712   1.286       .  A
O1699     Co1707   2.056       .  S
O1700      C1713   1.274       .  A
O1700     Co1708   1.989       .  S
O1701      C1714   1.277       .  A
O1701     Co1709   2.036       .  S
O1702      C1714   1.249       .  A
O1702     Co1707   1.934       .  S
O1703      C1713   1.285       .  A
O1703     Co1706   2.030       .  S
O1704      C1711   1.294       .  A
O1704     Co1709   2.068       .  S
O1705      C1712   1.268       .  A
O1705     Co1708   1.979       .  S
Co1706     O1710   1.885       .  S
Co1707     O1710   1.983       .  S
Co1708     O1710   2.074       .  S
Co1709     O1710   2.072       .  S
C1711      C2233   1.440       .  S
C1714      C3412   1.440       .  S
O1715      C1723   1.274       .  A
O1715     Co1735   1.897       .  S
O1716      C1724   1.256       .  A
O1716     Co1736   1.938       .  S
O1717      C1725   1.292       .  A
O1717     Co1737   2.006       .  S
O1718      C1726   1.260       .  A
O1718     Co1738   1.971       .  S
O1719      C1725   1.301       .  A
O1719     Co1736   2.017       .  S
O1720      C1726   1.258       .  A
O1720     Co1735   1.945       .  S
O1721      C1724   1.262       .  A
O1721     Co1738   1.980       .  S
O1722      C1723   1.310       .  A
O1722     Co1737   2.145       .  S
C1724      C2200   1.427       .  S
C1726      C2572   1.454       .  S
O1727      C1740   1.284       .  A
O1727     Co1735   2.053       .  S
O1728      C1741   1.227       .  A
O1728     Co1736   1.872       .  S
O1729      C1742   1.284       .  A
O1729     Co1737   2.029       .  S
O1730      C1743   1.261       .  A
O1730     Co1738   1.952       .  S
O1731      C1743   1.288       .  A
O1731     Co1736   2.074       .  S
O1732      C1742   1.258       .  A
O1732     Co1735   1.903       .  S
O1733      C1740   1.258       .  A
O1733     Co1738   1.935       .  S
O1734      C1741   1.277       .  A
O1734     Co1737   2.076       .  S
Co1735     O1739   1.872       .  S
Co1736     O1739   1.947       .  S
Co1737     O1739   2.097       .  S
Co1738     O1739   2.007       .  S
C1740      C2224   1.480       .  S
C1741      C2332   1.426       .  S
C1742      C2248   1.421       .  S
C1743      C2212   1.503       .  S
O1744      C1752   1.271       .  A
O1744     Co1764   1.953       .  S
O1745      C1753   1.308       .  A
O1745     Co1765   2.067       .  S
O1746      C1754   1.288       .  A
O1746     Co1766   2.074       .  S
O1747      C1755   1.267       .  A
O1747     Co1767   1.990       .  S
O1748      C1754   1.235       .  A
O1748     Co1765   1.896       .  S
O1749      C1755   1.257       .  A
O1749     Co1764   1.969       .  S
O1750      C1753   1.284       .  A
O1750     Co1767   1.971       .  S
O1751      C1752   1.279       .  A
O1751     Co1766   1.983       .  S
C1752      C2257   1.418       .  S
C1753      C2185   1.528       .  S
C1754      C2284   1.424       .  S
C1755      C2221   1.488       .  S
O1756      C1769   1.279       .  A
O1756     Co1764   1.955       .  S
O1757      C1770   1.330       .  A
O1757     Co1765   2.193       .  S
O1758      C1771   1.262       .  A
O1758     Co1766   2.001       .  S
O1759      C1772   1.276       .  A
O1759     Co1767   2.027       .  S
O1760      C1772   1.253       .  A
O1760     Co1765   1.931       .  S
O1761      C1771   1.272       .  A
O1761     Co1764   2.012       .  S
O1762      C1769   1.297       .  A
O1762     Co1767   2.039       .  S
O1763      C1770   1.262       .  A
O1763     Co1766   1.840       .  S
Co1764     O1768   2.004       .  S
Co1765     O1768   2.061       .  S
Co1766     O1768   1.875       .  S
Co1767     O1768   1.974       .  S
C1769      C2560   1.437       .  S
C1772      C3232   1.449       .  S
O1773      C1781   1.287       .  A
O1773     Co1793   2.044       .  S
O1774      C1782   1.251       .  A
O1774     Co1794   1.933       .  S
O1775      C1783   1.271       .  A
O1775     Co1795   1.985       .  S
O1776      C1784   1.297       .  A
O1776     Co1796   2.075       .  S
O1777      C1783   1.289       .  A
O1777     Co1794   2.072       .  S
O1778      C1784   1.259       .  A
O1778     Co1793   1.906       .  S
O1779      C1782   1.278       .  A
O1779     Co1796   2.034       .  S
O1780      C1781   1.286       .  A
O1780     Co1795   2.023       .  S
C1782      C3277   1.444       .  S
C1784      C2176   1.444       .  S
O1785      C1798   1.270       .  A
O1785     Co1793   1.913       .  S
O1786      C1799   1.233       .  A
O1786     Co1794   1.925       .  S
O1787      C1800   1.253       .  A
O1787     Co1795   1.937       .  S
O1788      C1801   1.294       .  A
O1788     Co1796   2.011       .  S
O1789      C1801   1.297       .  A
O1789     Co1794   2.029       .  S
O1790      C1800   1.235       .  A
O1790     Co1793   1.939       .  S
O1791      C1798   1.304       .  A
O1791     Co1796   2.112       .  S
O1792      C1799   1.264       .  A
O1792     Co1795   1.997       .  S
Co1793     O1797   1.900       .  S
Co1794     O1797   1.989       .  S
Co1795     O1797   2.076       .  S
Co1796     O1797   2.072       .  S
C1798      C2209   1.507       .  S
C1799      C2293   1.407       .  S
C1800      C2317   1.431       .  S
C1801      C2188   1.527       .  S
O1802      C1810   1.270       .  A
O1802     Co1822   1.945       .  S
O1803      C1811   1.306       .  A
O1803     Co1823   2.039       .  S
O1804      C1812   1.287       .  A
O1804     Co1824   2.068       .  S
O1805      C1813   1.268       .  A
O1805     Co1825   1.999       .  S
O1806      C1812   1.238       .  A
O1806     Co1823   1.927       .  S
O1807      C1813   1.262       .  A
O1807     Co1822   1.992       .  S
O1808      C1811   1.280       .  A
O1808     Co1825   1.934       .  S
O1809      C1810   1.277       .  A
O1809     Co1824   1.965       .  S
C1810      C2140   1.407       .  S
C1811      C2161   1.486       .  S
C1812      C2128   1.439       .  S
C1813      C2149   1.504       .  S
O1814      C1827   1.274       .  A
O1814     Co1822   1.941       .  S
O1815      C1828   1.327       .  A
O1815     Co1823   2.190       .  S
O1816      C1829   1.266       .  A
O1816     Co1824   2.011       .  S
O1817      C1830   1.279       .  A
O1817     Co1825   2.042       .  S
O1818      C1830   1.252       .  A
O1818     Co1823   1.930       .  S
O1819      C1829   1.269       .  A
O1819     Co1822   2.000       .  S
O1820      C1827   1.293       .  A
O1820     Co1825   2.034       .  S
O1821      C1828   1.268       .  A
O1821     Co1824   1.867       .  S
Co1822     O1826   1.999       .  S
Co1823     O1826   2.055       .  S
Co1824     O1826   1.889       .  S
Co1825     O1826   1.959       .  S
C1827      C2272   1.437       .  S
C1830      C2428   1.453       .  S
O1831      C1839   1.286       .  A
O1831     Co1851   1.933       .  S
O1832      C1840   1.258       .  A
O1832     Co1852   1.942       .  S
O1833      C1841   1.300       .  A
O1833     Co1853   2.036       .  S
O1834      C1842   1.259       .  A
O1834     Co1854   1.967       .  S
O1835      C1841   1.303       .  A
O1835     Co1852   2.039       .  S
O1836      C1842   1.263       .  A
O1836     Co1851   1.958       .  S
O1837      C1840   1.265       .  A
O1837     Co1854   1.971       .  S
O1838      C1839   1.310       .  A
O1838     Co1853   2.141       .  S
C1840      C3592   1.420       .  S
C1841      C1996   1.530       .  S
C1842      C2236   1.456       .  S
O1843      C1856   1.293       .  A
O1843     Co1851   2.070       .  S
O1844      C1857   1.230       .  A
O1844     Co1852   1.901       .  S
O1845      C1858   1.288       .  A
O1845     Co1853   2.044       .  S
O1846      C1859   1.262       .  A
O1846     Co1854   1.958       .  S
O1847      C1859   1.286       .  A
O1847     Co1852   2.066       .  S
O1848      C1858   1.246       .  A
O1848     Co1851   1.879       .  S
O1849      C1856   1.265       .  A
O1849     Co1854   1.946       .  S
O1850      C1857   1.277       .  A
O1850     Co1853   2.039       .  S
Co1851     O1855   1.885       .  S
Co1852     O1855   1.977       .  S
Co1853     O1855   2.092       .  S
Co1854     O1855   1.992       .  S
C1856      C2152   1.495       .  S
C1857      C2089   1.420       .  S
C1858      C2101   1.409       .  S
C1859      C2113   1.506       .  S
O1860      C1868   1.267       .  A
O1860     Co1880   1.879       .  S
O1861      C1869   1.288       .  A
O1861     Co1881   2.044       .  S
O1862      C1870   1.271       .  A
O1862     Co1882   2.015       .  S
O1863      C1871   1.284       .  A
O1863     Co1883   1.908       .  S
O1864      C1870   1.235       .  A
O1864     Co1881   1.930       .  S
O1865      C1871   1.299       .  A
O1865     Co1880   2.083       .  S
O1866      C1869   1.283       .  A
O1866     Co1883   1.993       .  S
O1867      C1868   1.317       .  A
O1867     Co1882   2.108       .  S
C1868      C2065   1.430       .  S
C1869      C2116   1.502       .  S
C1870      C2077   1.427       .  S
C1871      C2164   1.498       .  S
O1872      C1885   1.252       .  A
O1872     Co1880   1.917       .  S
O1873      C1886   1.306       .  A
O1873     Co1881   2.039       .  S
O1874      C1887   1.265       .  A
O1874     Co1882   2.015       .  S
O1875      C1888   1.269       .  A
O1875     Co1883   1.963       .  S
O1876      C1888   1.276       .  A
O1876     Co1881   1.959       .  S
O1877      C1887   1.267       .  A
O1877     Co1880   2.030       .  S
O1878      C1885   1.254       .  A
O1878     Co1883   1.975       .  S
O1879      C1886   1.290       .  A
O1879     Co1882   1.986       .  S
Co1880     O1884   2.029       .  S
Co1881     O1884   1.998       .  S
Co1882     O1884   1.954       .  S
Co1883     O1884   1.910       .  S
C1885      C2500   1.437       .  S
C1888      C3700   1.440       .  S
O1889      C1897   1.283       .  A
O1889     Co1909   1.943       .  S
O1890      C1898   1.258       .  A
O1890     Co1910   1.931       .  S
O1891      C1899   1.296       .  A
O1891     Co1911   2.037       .  S
O1892      C1900   1.262       .  A
O1892     Co1912   1.970       .  S
O1893      C1899   1.303       .  A
O1893     Co1910   2.056       .  S
O1894      C1900   1.257       .  A
O1894     Co1909   1.932       .  S
O1895      C1898   1.262       .  A
O1895     Co1912   1.967       .  S
O1896      C1897   1.308       .  A
O1896     Co1911   2.128       .  S
C1898      C3496   1.414       .  S
C1900      C2392   1.453       .  S
O1901      C1914   1.293       .  A
O1901     Co1909   2.077       .  S
O1902      C1915   1.218       .  A
O1902     Co1910   1.871       .  S
O1903      C1916   1.289       .  A
O1903     Co1911   2.050       .  S
O1904      C1917   1.266       .  A
O1904     Co1912   1.960       .  S
O1905      C1917   1.288       .  A
O1905     Co1910   2.066       .  S
O1906      C1916   1.248       .  A
O1906     Co1909   1.868       .  S
O1907      C1914   1.263       .  A
O1907     Co1912   1.949       .  S
O1908      C1915   1.271       .  A
O1908     Co1911   2.053       .  S
Co1909     O1913   1.867       .  S
Co1910     O1913   1.947       .  S
Co1911     O1913   2.106       .  S
Co1912     O1913   2.005       .  S
C1914      C2044   1.506       .  S
C1915      C2137   1.420       .  S
C1916      C2104   1.418       .  S
C1917      C2056   1.497       .  S
O1918      C1926   1.322       .  A
O1918     Co1938   2.166       .  S
O1919      C1927   1.273       .  A
O1919     Co1939   1.915       .  S
O1920      C1928   1.253       .  A
O1920     Co1940   1.955       .  S
O1921      C1929   1.272       .  A
O1921     Co1941   2.034       .  S
O1922      C1928   1.280       .  A
O1922     Co1939   2.026       .  S
O1923      C1929   1.250       .  A
O1923     Co1938   1.921       .  S
O1924      C1927   1.304       .  A
O1924     Co1941   2.072       .  S
O1925      C1926   1.268       .  A
O1925     Co1940   1.877       .  S
C1927      C2368   1.447       .  S
C1928      C2012   1.478       .  S
C1929      C2197   1.434       .  S
O1930      C1943   1.299       .  A
O1930     Co1938   2.044       .  S
O1931      C1944   1.262       .  A
O1931     Co1939   1.891       .  S
O1932      C1945   1.280       .  A
O1932     Co1940   2.025       .  S
O1933      C1946   1.267       .  A
O1933     Co1941   1.980       .  S
O1934      C1946   1.272       .  A
O1934     Co1939   2.026       .  S
O1935      C1945   1.246       .  A
O1935     Co1938   1.935       .  S
O1936      C1943   1.290       .  A
O1936     Co1941   1.990       .  S
O1937      C1944   1.296       .  A
O1937     Co1940   2.042       .  S
Co1938     O1942   2.030       .  S
Co1939     O1942   1.989       .  S
Co1940     O1942   1.880       .  S
Co1941     O1942   1.987       .  S
C1943      C2032   1.515       .  S
C1944      C2092   1.431       .  S
C1945      C2080   1.435       .  S
C1946      C2041   1.504       .  S
O1947      C1955   1.240       .  A
O1947     Co1967   1.910       .  S
O1948      C1956   1.263       .  A
O1948     Co1968   2.000       .  S
O1949      C1957   1.291       .  A
O1949     Co1969   2.027       .  S
O1950      C1958   1.282       .  A
O1950     Co1970   1.973       .  S
O1951      C1957   1.269       .  A
O1951     Co1968   1.948       .  S
O1952      C1958   1.301       .  A
O1952     Co1967   2.054       .  S
O1953      C1956   1.263       .  A
O1953     Co1970   1.985       .  S
O1954      C1955   1.282       .  A
O1954     Co1969   2.053       .  S
C1955      C2068   1.422       .  S
C1956      C2053   1.497       .  S
C1957      C2125   1.440       .  S
C1958      C2029   1.517       .  S
O1959      C1972   1.247       .  A
O1959     Co1967   1.928       .  S
O1960      C1973   1.275       .  A
O1960     Co1968   2.014       .  S
O1961      C1974   1.270       .  A
O1961     Co1969   1.868       .  S
O1962      C1975   1.301       .  A
O1962     Co1970   2.054       .  S
O1963      C1975   1.279       .  A
O1963     Co1968   1.941       .  S
O1964      C1974   1.324       .  A
O1964     Co1967   2.172       .  S
O1965      C1972   1.274       .  A
O1965     Co1970   2.032       .  S
O1966      C1973   1.260       .  A
O1966     Co1969   1.987       .  S
Co1967     O1971   2.051       .  S
Co1968     O1971   2.007       .  S
Co1969     O1971   1.895       .  S
Co1970     O1971   1.990       .  S
C1972      C2173   1.449       .  S
C1975      C3472   1.445       .  S
C1976      N1994   1.346       .  A
C1976      C2013   1.488       .  S
N1977      N1994   1.327       .  A
N1977      N1999   1.330       .  A
N1977     Co2014   2.095       .  S
C1978      N2003   1.336       .  A
C1978      C2016   1.449       .  S
C1978      H2023   1.082       .  S
H1979      C2020   1.074       .  S
C1980      N2004   1.347       .  A
C1980      C1984   1.460       .  S
C1980      H2009   1.082       .  S
Co1981     N1999   2.180   1_565  S
Co1981     N1989   2.176       .  S
Co1981     N2021   2.179   1_565  S
Co1981     N1997   2.194       .  S
Co1981    Cl2025   2.516       .  S
N1982      C2020   1.337       .  A
N1982      N1989   1.329       .  A
N1982     Co1983   2.096       .  S
Co1983     N1986   2.155       .  S
Co1983     N2003   2.081       .  S
Co1983     N1990   2.143       .  S
Co1983    Cl2025   2.455       .  S
C1984      N2022   1.366       .  A
N1985      N1992   1.322       .  A
N1985      N2015   1.339       .  A
N1985     Co2018   2.138   1_545  S
N1986      N2004   1.320       .  A
N1986      N2022   1.339       .  A
N1987      C2016   1.375       .  A
N1987      N1997   1.347       .  A
H1988      C2013   1.081       .  S
N1989      N2010   1.345       .  A
N1990      N2008   1.319       .  A
N1990      N1995   1.339       .  A
C1991      N1995   1.365       .  A
C1991      C2019   1.468       .  S
N1992      C2007   1.348       .  A
N1992     Co2014   2.124       .  S
C1993      N2021   1.364       .  A
C1993      C1996   1.487       .  S
C1993      H2027   1.081       .  S
C1996      N2017   1.355       .  A
N1997      N2003   1.328       .  A
N1998      C2024   1.346       .  A
N1998      N2000   1.322       .  A
N1998     Co2014   2.134       .  S
N1999      C2013   1.363       .  A
N2000      N2028   1.327       .  A
N2000     Co2018   2.058   1_545  S
H2001      C2024   1.081       .  S
H2002      C2019   1.080       .  S
N2004     Co2018   2.088       .  S
N2005      N2017   1.335       .  A
N2005      N2021   1.332       .  A
N2005     Co2014   2.126       .  S
C2006      N2010   1.371       .  A
C2006      C2020   1.453       .  S
C2007      C2026   1.470       .  S
C2007      H2011   1.079       .  S
N2008      C2019   1.356       .  A
N2008     Co2018   2.124       .  S
C2012      N2028   1.339       .  A
C2012      C2024   1.477       .  S
Co2014    Cl2025   2.464   1_545  S
N2015      C2026   1.364       .  A
Co2018    Cl2025   2.503       .  S
C2029      C2030   1.415       .  A
C2029      C2034   1.415       .  A
C2030      H2035   1.083       .  S
C2030      C2031   1.431       .  A
C2031      C2032   1.419       .  A
C2031      O2036   1.370       .  S
C2032      C2033   1.404       .  A
C2033      H2037   1.084       .  S
C2033      C2034   1.403       .  A
C2034      O2038   1.372       .  S
O2036      H2040   0.991       .  S
O2038      H2039   0.991       .  S
C2041      C2042   1.400       .  A
C2041      C2046   1.419       .  A
C2042      H2047   1.084       .  S
C2042      C2043   1.401       .  A
C2043      C2044   1.420       .  A
C2043      O2048   1.372       .  S
C2044      C2045   1.408       .  A
C2045      H2049   1.083       .  S
C2045      C2046   1.421       .  A
C2046      O2050   1.369       .  S
O2048      H2052   0.992       .  S
O2050      H2051   0.990       .  S
C2053      C2054   1.401       .  A
C2053      C2058   1.417       .  A
C2054      H2059   1.084       .  S
C2054      C2055   1.400       .  A
C2055      C2056   1.416       .  A
C2055      O2060   1.372       .  S
C2056      C2057   1.406       .  A
C2057      H2061   1.083       .  S
C2057      C2058   1.417       .  A
C2058      O2062   1.371       .  S
O2060      H2064   0.992       .  S
O2062      H2063   0.992       .  S
C2065      C2066   1.386       .  A
C2065      C2070   1.414       .  A
C2066      H2071   1.085       .  S
C2066      C2067   1.379       .  A
C2067      C2068   1.404       .  A
C2067      O2072   1.364       .  S
C2068      C2069   1.395       .  A
C2069      H2073   1.084       .  S
C2069      C2070   1.389       .  A
C2070      O2074   1.370       .  S
O2072      H2076   0.992       .  S
O2074      H2075   0.992       .  S
C2077      C2078   1.401       .  A
C2077      C2082   1.391       .  A
C2078      H2083   1.073       .  S
C2078      C2079   1.393       .  A
C2079      C2080   1.402       .  A
C2079      O2084   1.371       .  S
C2080      C2081   1.397       .  A
C2081      H2085   1.076       .  S
C2081      C2082   1.380       .  A
C2082      O2086   1.367       .  S
O2084      H2088   0.992       .  S
O2086      H2087   0.992       .  S
C2089      C2090   1.387       .  A
C2089      C2094   1.404       .  A
C2090      H2095   1.086       .  S
C2090      C2091   1.377       .  A
C2091      C2092   1.416       .  A
C2091      O2096   1.376       .  S
C2092      C2093   1.398       .  A
C2093      H2097   1.080       .  S
C2093      C2094   1.385       .  A
C2094      O2098   1.372       .  S
O2096      H2100   0.989       .  S
O2098      H2099   0.991       .  S
C2101      C2102   1.404       .  A
C2101      C2106   1.382       .  A
C2102      H2107   1.084       .  S
C2102      C2103   1.392       .  A
C2103      C2104   1.401       .  A
C2103      O2108   1.372       .  S
C2104      C2105   1.401       .  A
C2105      H2109   1.068       .  S
C2105      C2106   1.372       .  A
C2106      O2110   1.372       .  S
O2108      H2112   0.992       .  S
O2110      H2111   0.991       .  S
C2113      C2114   1.410       .  A
C2113      C2118   1.414       .  A
C2114      H2119   1.084       .  S
C2114      C2115   1.397       .  A
C2115      C2116   1.408       .  A
C2115      O2120   1.372       .  S
C2116      C2117   1.415       .  A
C2117      H2121   1.083       .  S
C2117      C2118   1.424       .  A
C2118      O2122   1.370       .  S
O2120      H2124   0.992       .  S
O2122      H2123   0.991       .  S
C2125      C2126   1.387       .  A
C2125      C2130   1.410       .  A
C2126      H2131   1.084       .  S
C2126      C2127   1.390       .  A
C2127      C2128   1.413       .  A
C2127      O2132   1.372       .  S
C2128      C2129   1.386       .  A
C2129      H2133   1.084       .  S
C2129      C2130   1.390       .  A
C2130      O2134   1.371       .  S
O2132      H2136   0.991       .  S
O2134      H2135   0.990       .  S
C2137      C2138   1.389       .  A
C2137      C2142   1.422       .  A
C2138      H2143   1.081       .  S
C2138      C2139   1.387       .  A
C2139      C2140   1.407       .  A
C2139      O2144   1.370       .  S
C2140      C2141   1.371       .  A
C2141      H2145   1.086       .  S
C2141      C2142   1.365       .  A
C2142      O2146   1.371       .  S
O2144      H2148   0.992       .  S
O2146      H2147   0.992       .  S
C2149      C2150   1.417       .  A
C2149      C2154   1.409       .  A
C2150      H2155   1.083       .  S
C2150      C2151   1.416       .  A
C2151      C2152   1.408       .  A
C2151      O2156   1.371       .  S
C2152      C2153   1.410       .  A
C2153      H2157   1.084       .  S
C2153      C2154   1.402       .  A
C2154      O2158   1.372       .  S
O2156      H2160   0.991       .  S
O2158      H2159   0.992       .  S
C2161      C2162   1.399       .  A
C2161      C2166   1.416       .  A
C2162      H2167   1.081       .  S
C2162      C2163   1.405       .  A
C2163      C2164   1.421       .  A
C2163      O2168   1.372       .  S
C2164      C2165   1.403       .  A
C2165      H2169   1.083       .  S
C2165      C2166   1.404       .  A
C2166      O2170   1.372       .  S
O2168      H2172   0.992       .  S
O2170      H2171   0.991       .  S
C2173      C2174   1.404       .  A
C2173      C2178   1.407       .  A
C2174      H2179   1.084       .  S
C2174      C2175   1.398   1_655  A
C2175      C2176   1.401       .  A
C2175      O2180   1.371       .  S
C2176      C2177   1.394       .  A
C2177      H2181   1.084       .  S
C2177      C2178   1.380   1_455  A
C2178      O2182   1.375       .  S
O2180      H2184   0.992       .  S
O2182      H2183   0.992       .  S
C2185      C2186   1.414       .  A
C2185      C2190   1.418       .  A
C2186      H2191   1.083       .  S
C2186      C2187   1.411       .  A
C2187      C2188   1.415       .  A
C2187      O2192   1.371       .  S
C2188      C2189   1.418       .  A
C2189      H2193   1.083       .  S
C2189      C2190   1.428       .  A
C2190      O2194   1.370       .  S
O2192      H2196   0.992       .  S
O2194      H2195   0.991       .  S
C2197      C2198   1.390       .  A
C2197      C2202   1.403       .  A
C2198      H2203   1.085       .  S
C2198      C2199   1.368   1_655  A
C2199      C2200   1.401       .  A
C2199      O2204   1.371       .  S
C2200      C2201   1.398       .  A
C2201      H2205   1.084       .  S
C2201      C2202   1.395   1_455  A
C2202      O2206   1.364       .  S
O2204      H2208   0.992       .  S
O2206      H2207   0.992       .  S
C2209      C2210   1.417       .  A
C2209      C2214   1.410       .  A
C2210      H2215   1.083       .  S
C2210      C2211   1.418       .  A
C2211      C2212   1.409       .  A
C2211      O2216   1.369       .  S
C2212      C2213   1.411       .  A
C2213      H2217   1.084       .  S
C2213      C2214   1.400       .  A
C2214      O2218   1.372       .  S
O2216      H2220   0.992       .  S
O2218      H2219   0.992       .  S
C2221      C2222   1.398       .  A
C2221      C2226   1.421       .  A
C2222      H2227   1.084       .  S
C2222      C2223   1.394       .  A
C2223      C2224   1.416       .  A
C2223      O2228   1.373       .  S
C2224      C2225   1.399       .  A
C2225      H2229   1.084       .  S
C2225      C2226   1.411       .  A
C2226      O2230   1.373       .  S
O2228      H2232   0.992       .  S
O2230      H2231   0.991       .  S
C2233      C2234   1.394       .  A
C2233      C2238   1.402       .  A
C2234      H2239   1.084       .  S
C2234      C2235   1.391       .  A
C2235      C2236   1.413       .  A
C2235      O2240   1.371       .  S
C2236      C2237   1.399       .  A
C2237      H2241   1.084       .  S
C2237      C2238   1.384       .  A
C2238      O2242   1.374       .  S
O2240      H2244   0.991       .  S
O2242      H2243   0.992       .  S
C2245      C2246   1.401       .  A
C2245      C2250   1.399       .  A
C2246      H2251   1.077       .  S
C2246      C2247   1.380       .  A
C2247      C2248   1.393       .  A
C2247      O2252   1.372       .  S
C2248      C2249   1.403       .  A
C2249      H2253   1.084       .  S
C2249      C2250   1.383       .  A
C2250      O2254   1.373       .  S
O2252      H2256   0.991       .  S
O2254      H2255   0.992       .  S
C2257      C2258   1.374       .  A
C2257      C2262   1.412       .  A
C2258      H2263   1.083       .  S
C2258      C2259   1.370       .  A
C2259      C2260   1.398       .  A
C2259      O2264   1.355       .  S
C2260      C2261   1.394       .  A
C2261      H2265   1.084       .  S
C2261      C2262   1.390       .  A
C2262      O2266   1.372       .  S
O2264      H2268   0.993       .  S
O2266      H2267   0.992       .  S
C2269      C2270   1.405       .  A
C2269      C2274   1.404       .  A
C2270      H2275   1.084       .  S
C2270      C2271   1.393       .  A
C2271      C2272   1.397       .  A
C2271      O2276   1.371       .  S
C2272      C2273   1.395       .  A
C2273      H2277   1.085       .  S
C2273      C2274   1.379       .  A
C2274      O2278   1.371       .  S
O2276      H2280   0.992       .  S
O2278      H2279   0.993       .  S
C2281      C2282   1.407       .  A
C2281      C2286   1.399       .  A
C2282      H2287   1.084       .  S
C2282      C2283   1.372       .  A
C2283      C2284   1.389       .  A
C2283      O2288   1.365       .  S
C2284      C2285   1.401       .  A
C2285      H2289   1.083       .  S
C2285      C2286   1.378       .  A
C2286      O2290   1.371       .  S
O2288      H2292   0.992       .  S
O2290      H2291   0.992       .  S
C2293      C2294   1.400       .  A
C2293      C2298   1.392       .  A
C2294      H2299   1.077       .  S
C2294      C2295   1.374       .  A
C2295      C2296   1.387       .  A
C2295      O2300   1.371       .  S
C2296      C2297   1.403       .  A
C2297      H2301   1.085       .  S
C2297      C2298   1.379       .  A
C2298      O2302   1.373       .  S
O2300      H2304   0.991       .  S
O2302      H2303   0.992       .  S
C2305      C2306   1.411       .  A
C2305      C2310   1.415       .  A
C2306      H2311   1.083       .  S
C2306      C2307   1.405       .  A
C2307      C2308   1.413       .  A
C2307      O2312   1.372       .  S
C2308      C2309   1.415       .  A
C2309      H2313   1.083       .  S
C2309      C2310   1.418       .  A
C2310      O2314   1.371       .  S
O2312      H2316   0.992       .  S
O2314      H2315   0.990       .  S
C2317      C2318   1.392       .  A
C2317      C2322   1.407       .  A
C2318      H2323   1.084       .  S
C2318      C2319   1.354       .  A
C2319      C2320   1.409       .  A
C2319      O2324   1.375       .  S
C2320      C2321   1.399       .  A
C2321      H2325   1.083       .  S
C2321      C2322   1.391       .  A
C2322      O2326   1.372       .  S
O2324      H2328   0.993       .  S
O2326      H2327   0.992       .  S
C2329      C2330   1.393       .  A
C2329      C2334   1.412       .  A
C2330      H2335   1.085       .  S
C2330      C2331   1.375       .  A
C2331      C2332   1.405       .  A
C2331      O2336   1.371       .  S
C2332      C2333   1.394       .  A
C2333      H2337   1.076       .  S
C2333      C2334   1.391       .  A
C2334      O2338   1.372       .  S
O2336      H2340   0.991       .  S
O2338      H2339   0.991       .  S
C2341      C2342   1.414       .  A
C2341      C2346   1.417       .  A
C2342      H2347   1.083       .  S
C2342      C2343   1.421       .  A
C2343      C2344   1.416       .  A
C2343      O2348   1.370       .  S
C2344      C2345   1.408       .  A
C2345      H2349   1.084       .  S
C2345      C2346   1.409       .  A
C2346      O2350   1.371       .  S
O2348      H2352   0.991       .  S
O2350      H2351   0.992       .  S
C2353      C2354   1.408       .  A
C2353      C2358   1.414       .  A
C2354      H2359   1.084       .  S
C2354      C2355   1.411       .  A
C2355      C2356   1.418       .  A
C2355      O2360   1.371       .  S
C2356      C2357   1.412       .  A
C2357      H2361   1.083       .  S
C2357      C2358   1.414       .  A
C2358      O2362   1.371       .  S
O2360      H2364   0.992       .  S
O2362      H2363   0.992       .  S
C2365      C2366   1.407       .  A
C2365      C2370   1.401       .  A
C2366      H2371   1.084       .  S
C2366      C2367   1.390   1_565  A
C2367      C2368   1.397       .  A
C2367      O2372   1.371       .  S
C2368      C2369   1.405       .  A
C2369      H2373   1.085       .  S
C2369      C2370   1.389   1_545  A
C2370      O2374   1.372       .  S
O2372      H2376   0.991       .  S
O2374      H2375   0.992       .  S
C2377      C2378   1.406       .  A
C2377      C2382   1.414       .  A
C2378      H2383   1.084       .  S
C2378      C2379   1.406       .  A
C2379      C2380   1.412       .  A
C2379      O2384   1.373       .  S
C2380      C2381   1.413       .  A
C2381      H2385   1.083       .  S
C2381      C2382   1.423       .  A
C2382      O2386   1.370       .  S
O2384      H2388   0.992       .  S
O2386      H2387   0.992       .  S
C2389      C2390   1.403       .  A
C2389      C2394   1.400       .  A
C2390      H2395   1.084       .  S
C2390      C2391   1.385   1_565  A
C2391      C2392   1.403       .  A
C2391      O2396   1.372       .  S
C2392      C2393   1.403       .  A
C2393      H2397   1.084       .  S
C2393      C2394   1.386   1_545  A
C2394      O2398   1.373       .  S
O2396      H2400   0.991       .  S
O2398      H2399   0.992       .  S
C2401      C2402   1.414       .  A
C2401      C2406   1.407       .  A
C2402      H2407   1.083       .  S
C2402      C2403   1.420       .  A
C2403      C2404   1.414       .  A
C2403      O2408   1.371       .  S
C2404      C2405   1.412       .  A
C2405      H2409   1.083       .  S
C2405      C2406   1.399       .  A
C2406      O2410   1.370       .  S
O2408      H2412   0.992       .  S
O2410      H2411   0.992       .  S
C2413      C2414   1.401       .  A
C2413      C2418   1.418       .  A
C2414      H2419   1.080       .  S
C2414      C2415   1.389       .  A
C2415      C2416   1.421       .  A
C2415      O2420   1.373       .  S
C2416      C2417   1.417       .  A
C2417      H2421   1.083       .  S
C2417      C2418   1.430       .  A
C2418      O2422   1.370       .  S
O2420      H2424   0.992       .  S
O2422      H2423   0.992       .  S
C2425      C2426   1.402       .  A
C2425      C2430   1.409       .  A
C2426      H2431   1.084       .  S
C2426      C2427   1.394       .  A
C2427      C2428   1.406       .  A
C2427      O2432   1.373       .  S
C2428      C2429   1.397       .  A
C2429      H2433   1.084       .  S
C2429      C2430   1.390       .  A
C2430      O2434   1.373       .  S
O2432      H2436   0.992       .  S
O2434      H2435   0.992       .  S
C2437      C2438   1.393       .  A
C2437      C2442   1.394       .  A
C2438      H2443   1.084       .  S
C2438      C2439   1.381       .  A
C2439      C2440   1.404       .  A
C2439      O2444   1.364       .  S
C2440      C2441   1.407       .  A
C2441      H2445   1.084       .  S
C2441      C2442   1.375       .  A
C2442      O2446   1.372       .  S
O2444      H2448   0.993       .  S
O2446      H2447   0.991       .  S
C2449      C2450   1.401       .  A
C2449      C2454   1.398       .  A
C2450      H2455   1.080       .  S
C2450      C2451   1.385       .  A
C2451      C2452   1.398       .  A
C2451      O2456   1.372       .  S
C2452      C2453   1.399       .  A
C2453      H2457   1.084       .  S
C2453      C2454   1.380       .  A
C2454      O2458   1.365       .  S
O2456      H2460   0.991       .  S
O2458      H2459   0.992       .  S
C2461      C2462   1.399       .  A
C2461      C2466   1.409       .  A
C2462      H2467   1.083       .  S
C2462      C2463   1.386       .  A
C2463      C2464   1.400       .  A
C2463      O2468   1.373       .  S
C2464      C2465   1.402       .  A
C2465      H2469   1.084       .  S
C2465      C2466   1.395       .  A
C2466      O2470   1.371       .  S
O2468      H2472   0.992       .  S
O2470      H2471   0.992       .  S
C2473      C2474   1.402       .  A
C2473      C2478   1.400       .  A
C2474      H2479   1.084       .  S
C2474      C2475   1.369       .  A
C2475      C2476   1.402       .  A
C2475      O2480   1.374       .  S
C2476      C2477   1.408       .  A
C2477      H2481   1.084       .  S
C2477      C2478   1.391       .  A
C2478      O2482   1.370       .  S
O2480      H2484   0.992       .  S
O2482      H2483   0.992       .  S
C2485      C2486   1.407       .  A
C2485      C2490   1.411       .  A
C2486      H2491   1.084       .  S
C2486      C2487   1.411       .  A
C2487      C2488   1.413       .  A
C2487      O2492   1.371       .  S
C2488      C2489   1.409       .  A
C2489      H2493   1.083       .  S
C2489      C2490   1.415       .  A
C2490      O2494   1.371       .  S
O2492      H2496   0.991       .  S
O2494      H2495   0.991       .  S
C2497      C2498   1.398       .  A
C2497      C2502   1.411       .  A
C2498      H2503   1.084       .  S
C2498      C2499   1.384       .  A
C2499      C2500   1.403       .  A
C2499      O2504   1.374       .  S
C2500      C2501   1.395       .  A
C2501      H2505   1.084       .  S
C2501      C2502   1.383       .  A
C2502      O2506   1.372       .  S
O2504      H2508   0.992       .  S
O2506      H2507   0.991       .  S
C2509      C2510   1.395       .  A
C2509      C2514   1.403       .  A
C2510      H2515   1.080       .  S
C2510      C2511   1.380       .  A
C2511      C2512   1.400       .  A
C2511      O2516   1.371       .  S
C2512      C2513   1.399       .  A
C2513      H2517   1.084       .  S
C2513      C2514   1.388       .  A
C2514      O2518   1.365       .  S
O2516      H2520   0.991       .  S
O2518      H2519   0.992       .  S
C2521      C2522   1.376       .  A
C2521      C2526   1.403       .  A
C2522      H2527   1.083       .  S
C2522      C2523   1.368       .  A
C2523      C2524   1.416       .  A
C2523      O2528   1.373       .  S
C2524      C2525   1.384       .  A
C2525      H2529   1.080       .  S
C2525      C2526   1.376       .  A
C2526      O2530   1.367       .  S
O2528      H2532   0.992       .  S
O2530      H2531   0.992       .  S
C2533      C2534   1.411       .  A
C2533      C2538   1.416       .  A
C2534      H2539   1.083       .  S
C2534      C2535   1.426       .  A
C2535      C2536   1.423       .  A
C2535      O2540   1.371       .  S
C2536      C2537   1.408       .  A
C2537      H2541   1.083       .  S
C2537      C2538   1.409       .  A
C2538      O2542   1.372       .  S
O2540      H2544   0.991       .  S
O2542      H2543   0.992       .  S
C2545      C2546   1.392       .  A
C2545      C2550   1.417       .  A
C2546      H2551   1.084       .  S
C2546      C2547   1.392       .  A
C2547      C2548   1.422       .  A
C2547      O2552   1.373       .  S
C2548      C2549   1.404       .  A
C2549      H2553   1.083       .  S
C2549      C2550   1.413       .  A
C2550      O2554   1.371       .  S
O2552      H2556   0.992       .  S
O2554      H2555   0.992       .  S
C2557      C2558   1.402       .  A
C2557      C2562   1.401       .  A
C2558      H2563   1.084       .  S
C2558      C2559   1.391   1_565  A
C2559      C2560   1.400       .  A
C2559      O2564   1.372       .  S
C2560      C2561   1.395       .  A
C2561      H2565   1.078       .  S
C2561      C2562   1.383   1_545  A
C2562      O2566   1.373       .  S
O2564      H2568   0.992       .  S
O2566      H2567   0.992       .  S
C2569      C2570   1.402       .  A
C2569      C2574   1.405       .  A
C2570      H2575   1.084       .  S
C2570      C2571   1.389   1_565  A
C2571      C2572   1.407       .  A
C2571      O2576   1.373       .  S
C2572      C2573   1.401       .  A
C2573      H2577   1.084       .  S
C2573      C2574   1.386   1_545  A
C2574      O2578   1.373       .  S
O2576      H2580   0.992       .  S
O2578      H2579   0.991       .  S
C2581      C2582   1.402       .  A
C2581      C2586   1.408       .  A
C2582      H2587   1.084       .  S
C2582      C2583   1.389   1_655  A
C2583      C2584   1.406       .  A
C2583      O2588   1.374       .  S
C2584      C2585   1.403       .  A
C2585      H2589   1.084       .  S
C2585      C2586   1.390   1_455  A
C2586      O2590   1.373       .  S
O2588      H2592   0.992       .  S
O2590      H2591   0.993       .  S
C2593      C2594   1.415       .  A
C2593      C2598   1.420       .  A
C2594      H2599   1.083       .  S
C2594      C2595   1.427       .  A
C2595      C2596   1.417       .  A
C2595      O2600   1.370       .  S
C2596      C2597   1.400       .  A
C2597      H2601   1.084       .  S
C2597      C2598   1.397       .  A
C2598      O2602   1.373       .  S
O2600      H2604   0.992       .  S
O2602      H2603   0.992       .  S
C2605      C2606   1.404       .  A
C2605      C2610   1.401       .  A
C2606      H2611   1.084       .  S
C2606      C2607   1.388   1_655  A
C2607      C2608   1.404       .  A
C2607      O2612   1.373       .  S
C2608      C2609   1.406       .  A
C2609      H2613   1.084       .  S
C2609      C2610   1.386   1_455  A
C2610      O2614   1.372       .  S
O2612      H2616   0.992       .  S
O2614      H2615   0.992       .  S
C2617      C2618   1.413       .  A
C2617      C2622   1.411       .  A
C2618      H2623   1.083       .  S
C2618      C2619   1.417       .  A
C2619      C2620   1.411       .  A
C2619      O2624   1.371       .  S
C2620      C2621   1.411       .  A
C2621      H2625   1.084       .  S
C2621      C2622   1.412       .  A
C2622      O2626   1.371       .  S
O2624      H2628   0.992       .  S
O2626      H2627   0.991       .  S
C2629      C2630   1.413       .  A
C2629      C2634   1.408       .  A
C2630      H2635   1.083       .  S
C2630      C2631   1.421       .  A
C2631      C2632   1.411       .  A
C2631      O2636   1.369       .  S
C2632      C2633   1.406       .  A
C2633      H2637   1.085       .  S
C2633      C2634   1.396       .  A
C2634      O2638   1.371       .  S
O2636      H2640   0.992       .  S
O2638      H2639   0.992       .  S
C2641      C2642   1.400       .  A
C2641      C2646   1.412       .  A
C2642      H2647   1.084       .  S
C2642      C2643   1.383       .  A
C2643      C2644   1.402       .  A
C2643      O2648   1.374       .  S
C2644      C2645   1.395       .  A
C2645      H2649   1.084       .  S
C2645      C2646   1.389       .  A
C2646      O2650   1.372       .  S
O2648      H2652   0.992       .  S
O2650      H2651   0.991       .  S
C2653      C2654   1.382       .  A
C2653      C2658   1.408       .  A
C2654      H2659   1.086       .  S
C2654      C2655   1.372       .  A
C2655      C2656   1.414       .  A
C2655      O2660   1.371       .  S
C2656      C2657   1.391       .  A
C2657      H2661   1.076       .  S
C2657      C2658   1.382       .  A
C2658      O2662   1.372       .  S
O2660      H2664   0.992       .  S
O2662      H2663   0.991       .  S
C2665      C2666   1.404       .  A
C2665      C2670   1.383       .  A
C2666      H2671   1.084       .  S
C2666      C2667   1.400       .  A
C2667      C2668   1.409       .  A
C2667      O2672   1.367       .  S
C2668      C2669   1.413       .  A
C2669      H2673   1.081       .  S
C2669      C2670   1.396       .  A
C2670      O2674   1.369       .  S
O2672      H2676   0.992       .  S
O2674      H2675   0.992       .  S
C2677      C2678   1.391       .  A
C2677      C2682   1.416       .  A
C2678      H2683   1.084       .  S
C2678      C2679   1.387       .  A
C2679      C2680   1.408       .  A
C2679      O2684   1.380       .  S
C2680      C2681   1.389       .  A
C2681      H2685   1.084       .  S
C2681      C2682   1.389       .  A
C2682      O2686   1.374       .  S
O2684      H2688   0.992       .  S
O2686      H2687   0.993       .  S
C2689      C2690   1.399       .  A
C2689      C2694   1.407       .  A
C2690      H2695   1.084       .  S
C2690      C2691   1.389       .  A
C2691      C2692   1.411       .  A
C2691      O2696   1.373       .  S
C2692      C2693   1.401       .  A
C2693      H2697   1.083       .  S
C2693      C2694   1.385       .  A
C2694      O2698   1.372       .  S
O2696      H2700   0.992       .  S
O2698      H2699   0.992       .  S
C2701      C2702   1.401       .  A
C2701      C2706   1.392       .  A
C2702      H2707   1.084       .  S
C2702      C2703   1.385       .  A
C2703      C2704   1.399       .  A
C2703      O2708   1.368       .  S
C2704      C2705   1.402       .  A
C2705      H2709   1.085       .  S
C2705      C2706   1.376       .  A
C2706      O2710   1.372       .  S
O2708      H2712   0.992       .  S
O2710      H2711   0.992       .  S
C2713      C2714   1.387       .  A
C2713      C2718   1.411       .  A
C2714      H2719   1.083       .  S
C2714      C2715   1.383       .  A
C2715      C2716   1.409       .  A
C2715      O2720   1.371       .  S
C2716      C2717   1.383       .  A
C2717      H2721   1.085       .  S
C2717      C2718   1.376       .  A
C2718      O2722   1.371       .  S
O2720      H2724   0.990       .  S
O2722      H2723   0.992       .  S
C2725      C2726   1.410       .  A
C2725      C2730   1.412       .  A
C2726      H2731   1.083       .  S
C2726      C2727   1.420       .  A
C2727      C2728   1.414       .  A
C2727      O2732   1.369       .  S
C2728      C2729   1.405       .  A
C2729      H2733   1.084       .  S
C2729      C2730   1.405       .  A
C2730      O2734   1.373       .  S
O2732      H2736   0.991       .  S
O2734      H2735   0.992       .  S
C2737      C2738   1.406       .  A
C2737      C2742   1.398       .  A
C2738      H2743   1.084       .  S
C2738      C2739   1.397       .  A
C2739      C2740   1.399       .  A
C2739      O2744   1.371       .  S
C2740      C2741   1.407       .  A
C2741      H2745   1.081       .  S
C2741      C2742   1.390       .  A
C2742      O2746   1.373       .  S
O2744      H2748   0.991       .  S
O2746      H2747   0.992       .  S
C2749      C2750   1.372       .  A
C2749      C2754   1.406       .  A
C2750      H2755   1.086       .  S
C2750      C2751   1.371       .  A
C2751      C2752   1.413       .  A
C2751      O2756   1.364       .  S
C2752      C2753   1.394       .  A
C2753      H2757   1.075       .  S
C2753      C2754   1.395       .  A
C2754      O2758   1.374       .  S
O2756      H2760   0.993       .  S
O2758      H2759   0.991       .  S
C2761      C2762   1.395       .  A
C2761      C2766   1.409       .  A
C2762      H2767   1.081       .  S
C2762      C2763   1.394       .  A
C2763      C2764   1.406       .  A
C2763      O2768   1.370       .  S
C2764      C2765   1.389       .  A
C2765      H2769   1.085       .  S
C2765      C2766   1.387       .  A
C2766      O2770   1.371       .  S
O2768      H2772   0.992       .  S
O2770      H2771   0.992       .  S
C2773      C2774   1.419       .  A
C2773      C2778   1.413       .  A
C2774      H2779   1.083       .  S
C2774      C2775   1.428       .  A
C2775      C2776   1.413       .  A
C2775      O2780   1.370       .  S
C2776      C2777   1.406       .  A
C2777      H2781   1.084       .  S
C2777      C2778   1.394       .  A
C2778      O2782   1.374       .  S
O2780      H2784   0.992       .  S
O2782      H2783   0.992       .  S
C2785      C2786   1.402       .  A
C2785      C2790   1.418       .  A
C2786      H2791   1.083       .  S
C2786      C2787   1.412       .  A
C2787      C2788   1.420       .  A
C2787      O2792   1.372       .  S
C2788      C2789   1.397       .  A
C2789      H2793   1.084       .  S
C2789      C2790   1.391       .  A
C2790      O2794   1.373       .  S
O2792      H2796   0.991       .  S
O2794      H2795   0.992       .  S
C2797      C2798   1.403       .  A
C2797      C2802   1.406       .  A
C2798      H2803   1.084       .  S
C2798      C2799   1.389   1_556  A
C2799      C2800   1.405       .  A
C2799      O2804   1.372       .  S
C2800      C2801   1.399       .  A
C2801      H2805   1.084       .  S
C2801      C2802   1.388   1_554  A
C2802      O2806   1.375       .  S
O2804      H2808   0.992       .  S
O2806      H2807   0.993       .  S
C2809      C2810   1.405       .  A
C2809      C2814   1.407       .  A
C2810      H2815   1.084       .  S
C2810      C2811   1.390   1_556  A
C2811      C2812   1.406       .  A
C2811      O2816   1.371       .  S
C2812      C2813   1.404       .  A
C2813      H2817   1.084       .  S
C2813      C2814   1.391   1_554  A
C2814      O2818   1.373       .  S
O2816      H2820   0.992       .  S
O2818      H2819   0.993       .  S
C2821      C2822   1.409       .  A
C2821      C2826   1.413       .  A
C2822      H2827   1.084       .  S
C2822      C2823   1.421       .  A
C2823      C2824   1.417       .  A
C2823      O2828   1.368       .  S
C2824      C2825   1.407       .  A
C2825      H2829   1.084       .  S
C2825      C2826   1.410       .  A
C2826      O2830   1.371       .  S
O2828      H2832   0.992       .  S
O2830      H2831   0.992       .  S
C2833      C2834   1.403       .  A
C2833      C2838   1.418       .  A
C2834      H2839   1.084       .  S
C2834      C2835   1.398       .  A
C2835      C2836   1.419       .  A
C2835      O2840   1.372       .  S
C2836      C2837   1.409       .  A
C2837      H2841   1.083       .  S
C2837      C2838   1.427       .  A
C2838      O2842   1.375       .  S
O2840      H2844   0.992       .  S
O2842      H2843   0.991       .  S
C2845      C2846   1.403       .  A
C2845      C2850   1.415       .  A
C2846      H2851   1.084       .  S
C2846      C2847   1.397       .  A
C2847      C2848   1.416       .  A
C2847      O2852   1.372       .  S
C2848      C2849   1.409       .  A
C2849      H2853   1.083       .  S
C2849      C2850   1.415       .  A
C2850      O2854   1.371       .  S
O2852      H2856   0.992       .  S
O2854      H2855   0.992       .  S
C2857      C2858   1.407       .  A
C2857      C2862   1.404       .  A
C2858      H2863   1.084       .  S
C2858      C2859   1.393       .  A
C2859      C2860   1.399       .  A
C2859      O2864   1.371       .  S
C2860      C2861   1.398       .  A
C2861      H2865   1.083       .  S
C2861      C2862   1.386       .  A
C2862      O2866   1.370       .  S
O2864      H2868   0.991       .  S
O2866      H2867   0.992       .  S
C2869      C2870   1.416       .  A
C2869      C2874   1.397       .  A
C2870      H2875   1.084       .  S
C2870      C2871   1.381       .  A
C2871      C2872   1.389       .  A
C2871      O2876   1.373       .  S
C2872      C2873   1.403       .  A
C2873      H2877   1.085       .  S
C2873      C2874   1.389       .  A
C2874      O2878   1.363       .  S
O2876      H2880   0.992       .  S
O2878      H2879   0.992       .  S
C2881      C2882   1.405       .  A
C2881      C2886   1.388       .  A
C2882      H2887   1.084       .  S
C2882      C2883   1.386       .  A
C2883      C2884   1.396       .  A
C2883      O2888   1.372       .  S
C2884      C2885   1.398       .  A
C2885      H2889   1.070       .  S
C2885      C2886   1.376       .  A
C2886      O2890   1.373       .  S
O2888      H2892   0.992       .  S
O2890      H2891   0.989       .  S
C2893      C2894   1.392       .  A
C2893      C2898   1.411       .  A
C2894      H2899   1.084       .  S
C2894      C2895   1.361       .  A
C2895      C2896   1.399       .  A
C2895      O2900   1.372       .  S
C2896      C2897   1.381       .  A
C2897      H2901   1.084       .  S
C2897      C2898   1.361       .  A
C2898      O2902   1.370       .  S
O2900      H2904   0.992       .  S
O2902      H2903   0.992       .  S
C2905      C2906   1.385       .  A
C2905      C2910   1.411       .  A
C2906      H2911   1.085       .  S
C2906      C2907   1.381       .  A
C2907      C2908   1.403       .  A
C2907      O2912   1.363       .  S
C2908      C2909   1.397       .  A
C2909      H2913   1.084       .  S
C2909      C2910   1.398       .  A
C2910      O2914   1.372       .  S
O2912      H2916   0.992       .  S
O2914      H2915   0.992       .  S
C2917      C2918   1.403       .  A
C2917      C2922   1.421       .  A
C2918      H2923   1.084       .  S
C2918      C2919   1.401       .  A
C2919      C2920   1.419       .  A
C2919      O2924   1.374       .  S
C2920      C2921   1.411       .  A
C2921      H2925   1.082       .  S
C2921      C2922   1.427       .  A
C2922      O2926   1.370       .  S
O2924      H2928   0.992       .  S
O2926      H2927   0.991       .  S
C2929      C2930   1.394       .  A
C2929      C2934   1.402       .  A
C2930      H2935   1.085       .  S
C2930      C2931   1.381       .  A
C2931      C2932   1.405       .  A
C2931      O2936   1.373       .  S
C2932      C2933   1.391       .  A
C2933      H2937   1.085       .  S
C2933      C2934   1.382       .  A
C2934      O2938   1.370       .  S
O2936      H2940   0.991       .  S
O2938      H2939   0.992       .  S
C2941      C2942   1.395       .  A
C2941      C2946   1.409       .  A
C2942      H2947   1.072       .  S
C2942      C2943   1.390       .  A
C2943      C2944   1.396       .  A
C2943      O2948   1.370       .  S
C2944      C2945   1.400       .  A
C2945      H2949   1.083       .  S
C2945      C2946   1.396       .  A
C2946      O2950   1.371       .  S
O2948      H2952   0.991       .  S
O2950      H2951   0.992       .  S
C2953      C2954   1.405       .  A
C2953      C2958   1.399       .  A
C2954      H2959   1.084       .  S
C2954      C2955   1.394       .  A
C2955      C2956   1.405       .  A
C2955      O2960   1.371       .  S
C2956      C2957   1.385       .  A
C2957      H2961   1.080       .  S
C2957      C2958   1.388       .  A
C2958      O2962   1.368       .  S
O2960      H2964   0.992       .  S
O2962      H2963   0.992       .  S
C2965      C2966   1.403       .  A
C2965      C2970   1.410       .  A
C2966      H2971   1.085       .  S
C2966      C2967   1.385       .  A
C2967      C2968   1.406       .  A
C2967      O2972   1.371       .  S
C2968      C2969   1.413       .  A
C2969      H2973   1.083       .  S
C2969      C2970   1.420       .  A
C2970      O2974   1.371       .  S
O2972      H2976   0.992       .  S
O2974      H2975   0.991       .  S
C2977      C2978   1.404       .  A
C2977      C2982   1.418       .  A
C2978      H2983   1.084       .  S
C2978      C2979   1.407       .  A
C2979      C2980   1.418       .  A
C2979      O2984   1.367       .  S
C2980      C2981   1.409       .  A
C2981      H2985   1.083       .  S
C2981      C2982   1.413       .  A
C2982      O2986   1.371       .  S
O2984      H2988   0.992       .  S
O2986      H2987   0.992       .  S
C2989      C2990   1.412       .  A
C2989      C2994   1.397       .  A
C2990      H2995   1.084       .  S
C2990      C2991   1.391   1_556  A
C2991      C2992   1.395       .  A
C2991      O2996   1.371       .  S
C2992      C2993   1.407       .  A
C2993      H2997   1.079       .  S
C2993      C2994   1.389   1_554  A
C2994      O2998   1.373       .  S
O2996      H3000   0.991       .  S
O2998      H2999   0.992       .  S
C3001      C3002   1.402       .  A
C3001      C3006   1.404       .  A
C3002      H3007   1.084       .  S
C3002      C3003   1.386   1_556  A
C3003      C3004   1.406       .  A
C3003      O3008   1.373       .  S
C3004      C3005   1.402       .  A
C3005      H3009   1.084       .  S
C3005      C3006   1.386   1_554  A
C3006      O3010   1.373       .  S
O3008      H3012   0.992       .  S
O3010      H3011   0.992       .  S
C3013      C3014   1.392       .  A
C3013      C3018   1.400       .  A
C3014      H3019   1.076       .  S
C3014      C3015   1.357   1_655  A
C3015      C3016   1.393       .  A
C3015      O3020   1.374       .  S
C3016      C3017   1.401       .  A
C3017      H3021   1.083       .  S
C3017      C3018   1.391   1_455  A
C3018      O3022   1.371       .  S
O3020      H3024   0.992       .  S
O3022      H3023   0.992       .  S
C3025      C3026   1.401       .  A
C3025      C3030   1.414       .  A
C3026      H3031   1.084       .  S
C3026      C3027   1.400       .  A
C3027      C3028   1.416       .  A
C3027      O3032   1.373       .  S
C3028      C3029   1.411       .  A
C3029      H3033   1.083       .  S
C3029      C3030   1.420       .  A
C3030      O3034   1.370       .  S
O3032      H3036   0.992       .  S
O3034      H3035   0.992       .  S
C3037      C3038   1.402       .  A
C3037      C3042   1.408       .  A
C3038      H3043   1.084       .  S
C3038      C3039   1.386   1_655  A
C3039      C3040   1.402       .  A
C3039      O3044   1.373       .  S
C3040      C3041   1.399       .  A
C3041      H3045   1.084       .  S
C3041      C3042   1.392   1_455  A
C3042      O3046   1.371       .  S
O3044      H3048   0.992       .  S
O3046      H3047   0.991       .  S
C3049      C3050   1.407       .  A
C3049      C3054   1.418       .  A
C3050      H3055   1.084       .  S
C3050      C3051   1.407       .  A
C3051      C3052   1.415       .  A
C3051      O3056   1.372       .  S
C3052      C3053   1.411       .  A
C3053      H3057   1.083       .  S
C3053      C3054   1.425       .  A
C3054      O3058   1.366       .  S
O3056      H3060   0.992       .  S
O3058      H3059   0.991       .  S
C3061      C3062   1.415       .  A
C3061      C3066   1.409       .  A
C3062      H3067   1.083       .  S
C3062      C3063   1.424       .  A
C3063      C3064   1.413       .  A
C3063      O3068   1.371       .  S
C3064      C3065   1.406       .  A
C3065      H3069   1.084       .  S
C3065      C3066   1.402       .  A
C3066      O3070   1.377       .  S
O3068      H3072   0.992       .  S
O3070      H3071   0.992       .  S
C3073      C3074   1.401       .  A
C3073      C3078   1.412       .  A
C3074      H3079   1.084       .  S
C3074      C3075   1.390       .  A
C3075      C3076   1.405       .  A
C3075      O3080   1.374       .  S
C3076      C3077   1.396       .  A
C3077      H3081   1.084       .  S
C3077      C3078   1.390       .  A
C3078      O3082   1.371       .  S
O3080      H3084   0.992       .  S
O3082      H3083   0.991       .  S
C3085      C3086   1.398       .  A
C3085      C3090   1.402       .  A
C3086      H3091   1.081       .  S
C3086      C3087   1.377       .  A
C3087      C3088   1.390       .  A
C3087      O3092   1.370       .  S
C3088      C3089   1.401       .  A
C3089      H3093   1.084       .  S
C3089      C3090   1.389       .  A
C3090      O3094   1.371       .  S
O3092      H3096   0.992       .  S
O3094      H3095   0.992       .  S
C3097      C3098   1.382       .  A
C3097      C3102   1.421       .  A
C3098      H3103   1.085       .  S
C3098      C3099   1.371       .  A
C3099      C3100   1.418       .  A
C3099      O3104   1.369       .  S
C3100      C3101   1.380       .  A
C3101      H3105   1.085       .  S
C3101      C3102   1.374       .  A
C3102      O3106   1.377       .  S
O3104      H3108   0.992       .  S
O3106      H3107   0.992       .  S
C3109      C3110   1.389       .  A
C3109      C3114   1.415       .  A
C3110      H3115   1.083       .  S
C3110      C3111   1.383       .  A
C3111      C3112   1.409       .  A
C3111      O3116   1.368       .  S
C3112      C3113   1.393       .  A
C3113      H3117   1.084       .  S
C3113      C3114   1.390       .  A
C3114      O3118   1.372       .  S
O3116      H3120   0.992       .  S
O3118      H3119   0.991       .  S
C3121      C3122   1.409       .  A
C3121      C3126   1.395       .  A
C3122      H3127   1.078       .  S
C3122      C3123   1.377       .  A
C3123      C3124   1.390       .  A
C3123      O3128   1.370       .  S
C3124      C3125   1.409       .  A
C3125      H3129   1.084       .  S
C3125      C3126   1.381       .  A
C3126      O3130   1.371       .  S
O3128      H3132   0.992       .  S
O3130      H3131   0.992       .  S
C3133      C3134   1.377       .  A
C3133      C3138   1.403       .  A
C3134      H3139   1.086       .  S
C3134      C3135   1.366       .  A
C3135      C3136   1.409       .  A
C3135      O3140   1.370       .  S
C3136      C3137   1.390       .  A
C3137      H3141   1.080       .  S
C3137      C3138   1.377       .  A
C3138      O3142   1.370       .  S
O3140      H3144   0.991       .  S
O3142      H3143   0.992       .  S
C3145      C3146   1.416       .  A
C3145      C3150   1.410       .  A
C3146      H3151   1.083       .  S
C3146      C3147   1.427       .  A
C3147      C3148   1.417       .  A
C3147      O3152   1.371       .  S
C3148      C3149   1.409       .  A
C3149      H3153   1.084       .  S
C3149      C3150   1.403       .  A
C3150      O3154   1.372       .  S
O3152      H3156   0.992       .  S
O3154      H3155   0.992       .  S
C3157      C3158   1.401       .  A
C3157      C3162   1.411       .  A
C3158      H3163   1.084       .  S
C3158      C3159   1.386       .  A
C3159      C3160   1.403       .  A
C3159      O3164   1.372       .  S
C3160      C3161   1.398       .  A
C3161      H3165   1.084       .  S
C3161      C3162   1.391       .  A
C3162      O3166   1.373       .  S
O3164      H3168   0.992       .  S
O3166      H3167   0.992       .  S
C3169      C3170   1.401       .  A
C3169      C3174   1.410       .  A
C3170      H3175   1.084       .  S
C3170      C3171   1.387       .  A
C3171      C3172   1.407       .  A
C3171      O3176   1.371       .  S
C3172      C3173   1.400       .  A
C3173      H3177   1.084       .  S
C3173      C3174   1.388       .  A
C3174      O3178   1.374       .  S
O3176      H3180   0.991       .  S
O3178      H3179   0.993       .  S
C3181      C3182   1.405       .  A
C3181      C3186   1.391       .  A
C3182      H3187   1.084       .  S
C3182      C3183   1.394       .  A
C3183      C3184   1.400       .  A
C3183      O3188   1.372       .  S
C3184      C3185   1.406       .  A
C3185      H3189   1.083       .  S
C3185      C3186   1.375       .  A
C3186      O3190   1.373       .  S
O3188      H3192   0.992       .  S
O3190      H3191   0.991       .  S
C3193      C3194   1.397       .  A
C3193      C3198   1.409       .  A
C3194      H3199   1.083       .  S
C3194      C3195   1.393       .  A
C3195      C3196   1.403       .  A
C3195      O3200   1.367       .  S
C3196      C3197   1.383       .  A
C3197      H3201   1.085       .  S
C3197      C3198   1.375       .  A
C3198      O3202   1.366       .  S
O3200      H3204   0.992       .  S
O3202      H3203   0.993       .  S
C3205      C3206   1.404       .  A
C3205      C3210   1.415       .  A
C3206      H3211   1.084       .  S
C3206      C3207   1.400       .  A
C3207      C3208   1.415       .  A
C3207      O3212   1.373       .  S
C3208      C3209   1.412       .  A
C3209      H3213   1.083       .  S
C3209      C3210   1.423       .  A
C3210      O3214   1.370       .  S
O3212      H3216   0.992       .  S
O3214      H3215   0.991       .  S
C3217      C3218   1.408       .  A
C3217      C3222   1.417       .  A
C3218      H3223   1.083       .  S
C3218      C3219   1.424       .  A
C3219      C3220   1.418       .  A
C3219      O3224   1.372       .  S
C3220      C3221   1.401       .  A
C3221      H3225   1.083       .  S
C3221      C3222   1.395       .  A
C3222      O3226   1.373       .  S
O3224      H3228   0.991       .  S
O3226      H3227   0.991       .  S
C3229      C3230   1.402       .  A
C3229      C3234   1.411       .  A
C3230      H3235   1.084       .  S
C3230      C3231   1.387   1_556  A
C3231      C3232   1.402       .  A
C3231      O3236   1.372       .  S
C3232      C3233   1.397       .  A
C3233      H3237   1.084       .  S
C3233      C3234   1.392   1_554  A
C3234      O3238   1.373       .  S
O3236      H3240   0.992       .  S
O3238      H3239   0.992       .  S
C3241      C3242   1.402       .  A
C3241      C3246   1.405       .  A
C3242      H3247   1.084       .  S
C3242      C3243   1.384   1_545  A
C3243      C3244   1.405       .  A
C3243      O3248   1.372       .  S
C3244      C3245   1.401       .  A
C3245      H3249   1.084       .  S
C3245      C3246   1.385   1_565  A
C3246      O3250   1.374       .  S
O3248      H3252   0.992       .  S
O3250      H3251   0.993       .  S
C3253      C3254   1.397       .  A
C3253      C3258   1.404       .  A
C3254      H3259   1.083       .  S
C3254      C3255   1.388   1_545  A
C3255      C3256   1.402       .  A
C3255      O3260   1.371       .  S
C3256      C3257   1.400       .  A
C3257      H3261   1.084       .  S
C3257      C3258   1.396   1_565  A
C3258      O3262   1.372       .  S
O3260      H3264   0.992       .  S
O3262      H3263   0.991       .  S
C3265      C3266   1.416       .  A
C3265      C3270   1.416       .  A
C3266      H3271   1.083       .  S
C3266      C3267   1.424       .  A
C3267      C3268   1.416       .  A
C3267      O3272   1.371       .  S
C3268      C3269   1.410       .  A
C3269      H3273   1.083       .  S
C3269      C3270   1.406       .  A
C3270      O3274   1.372       .  S
O3272      H3276   0.992       .  S
O3274      H3275   0.992       .  S
C3277      C3278   1.396       .  A
C3277      C3282   1.403       .  A
C3278      H3283   1.084       .  S
C3278      C3279   1.389   1_554  A
C3279      C3280   1.410       .  A
C3279      O3284   1.371       .  S
C3280      C3281   1.399       .  A
C3281      H3285   1.084       .  S
C3281      C3282   1.387   1_556  A
C3282      O3286   1.374       .  S
O3284      H3288   0.991       .  S
O3286      H3287   0.992       .  S
C3289      C3290   1.409       .  A
C3289      C3294   1.408       .  A
C3290      H3295   1.083       .  S
C3290      C3291   1.417       .  A
C3291      C3292   1.412       .  A
C3291      O3296   1.371       .  S
C3292      C3293   1.404       .  A
C3293      H3297   1.084       .  S
C3293      C3294   1.400       .  A
C3294      O3298   1.372       .  S
O3296      H3300   0.991       .  S
O3298      H3299   0.991       .  S
C3301      C3302   1.409       .  A
C3301      C3306   1.417       .  A
C3302      H3307   1.084       .  S
C3302      C3303   1.408       .  A
C3303      C3304   1.416       .  A
C3303      O3308   1.372       .  S
C3304      C3305   1.416       .  A
C3305      H3309   1.083       .  S
C3305      C3306   1.427       .  A
C3306      O3310   1.370       .  S
O3308      H3312   0.992       .  S
O3310      H3311   0.991       .  S
C3313      C3314   1.395       .  A
C3313      C3318   1.400       .  A
C3314      H3319   1.071       .  S
C3314      C3315   1.357       .  A
C3315      C3316   1.388       .  A
C3315      O3320   1.375       .  S
C3316      C3317   1.402       .  A
C3317      H3321   1.083       .  S
C3317      C3318   1.395       .  A
C3318      O3322   1.371       .  S
O3320      H3324   0.992       .  S
O3322      H3323   0.992       .  S
C3325      C3326   1.407       .  A
C3325      C3330   1.402       .  A
C3326      H3331   1.082       .  S
C3326      C3327   1.385       .  A
C3327      C3328   1.387       .  A
C3327      O3332   1.371       .  S
C3328      C3329   1.402       .  A
C3329      H3333   1.084       .  S
C3329      C3330   1.392       .  A
C3330      O3334   1.367       .  S
O3332      H3336   0.991       .  S
O3334      H3335   0.992       .  S
C3337      C3338   1.390       .  A
C3337      C3342   1.407       .  A
C3338      H3343   1.085       .  S
C3338      C3339   1.377       .  A
C3339      C3340   1.404       .  A
C3339      O3344   1.373       .  S
C3340      C3341   1.381       .  A
C3341      H3345   1.086       .  S
C3341      C3342   1.370       .  A
C3342      O3346   1.370       .  S
O3344      H3348   0.991       .  S
O3346      H3347   0.992       .  S
C3349      C3350   1.398       .  A
C3349      C3354   1.401       .  A
C3350      H3355   1.083       .  S
C3350      C3351   1.384       .  A
C3351      C3352   1.406       .  A
C3351      O3356   1.372       .  S
C3352      C3353   1.408       .  A
C3353      H3357   1.084       .  S
C3353      C3354   1.394       .  A
C3354      O3358   1.373       .  S
O3356      H3360   0.993       .  S
O3358      H3359   0.992       .  S
C3361      C3362   1.399       .  A
C3361      C3366   1.408       .  A
C3362      H3367   1.084       .  S
C3362      C3363   1.385       .  A
C3363      C3364   1.408       .  A
C3363      O3368   1.372       .  S
C3364      C3365   1.395       .  A
C3365      H3369   1.084       .  S
C3365      C3366   1.385       .  A
C3366      O3370   1.374       .  S
O3368      H3372   0.992       .  S
O3370      H3371   0.993       .  S
C3373      C3374   1.400       .  A
C3373      C3378   1.385       .  A
C3374      H3379   1.084       .  S
C3374      C3375   1.378       .  A
C3375      C3376   1.390       .  A
C3375      O3380   1.371       .  S
C3376      C3377   1.401       .  A
C3377      H3381   1.082       .  S
C3377      C3378   1.357       .  A
C3378      O3382   1.374       .  S
O3380      H3384   0.992       .  S
O3382      H3383   0.991       .  S
C3385      C3386   1.409       .  A
C3385      C3390   1.391       .  A
C3386      H3391   1.083       .  S
C3386      C3387   1.389       .  A
C3387      C3388   1.398       .  A
C3387      O3392   1.372       .  S
C3388      C3389   1.407       .  A
C3389      H3393   1.079       .  S
C3389      C3390   1.370       .  A
C3390      O3394   1.375       .  S
O3392      H3396   0.992       .  S
O3394      H3395   0.992       .  S
C3397      C3398   1.404       .  A
C3397      C3402   1.414       .  A
C3398      H3403   1.084       .  S
C3398      C3399   1.397       .  A
C3399      C3400   1.411       .  A
C3399      O3404   1.372       .  S
C3400      C3401   1.412       .  A
C3401      H3405   1.083       .  S
C3401      C3402   1.420       .  A
C3402      O3406   1.371       .  S
O3404      H3408   0.992       .  S
O3406      H3407   0.992       .  S
C3409      C3410   1.403       .  A
C3409      C3414   1.405       .  A
C3410      H3415   1.084       .  S
C3410      C3411   1.388       .  A
C3411      C3412   1.401       .  A
C3411      O3416   1.372       .  S
C3412      C3413   1.397       .  A
C3413      H3417   1.083       .  S
C3413      C3414   1.386       .  A
C3414      O3418   1.374       .  S
O3416      H3420   0.991       .  S
O3418      H3419   0.992       .  S
C3421      C3422   1.397       .  A
C3421      C3426   1.402       .  A
C3422      H3427   1.078       .  S
C3422      C3423   1.387       .  A
C3423      C3424   1.397       .  A
C3423      O3428   1.371       .  S
C3424      C3425   1.396       .  A
C3425      H3429   1.084       .  S
C3425      C3426   1.383       .  A
C3426      O3430   1.362       .  S
O3428      H3432   0.991       .  S
O3430      H3431   0.992       .  S
C3433      C3434   1.403       .  A
C3433      C3438   1.390       .  A
C3434      H3439   1.083       .  S
C3434      C3435   1.375       .  A
C3435      C3436   1.392       .  A
C3435      O3440   1.372       .  S
C3436      C3437   1.400       .  A
C3437      H3441   1.074       .  S
C3437      C3438   1.378       .  A
C3438      O3442   1.372       .  S
O3440      H3444   0.990       .  S
O3442      H3443   0.991       .  S
C3445      C3446   1.421       .  A
C3445      C3450   1.411       .  A
C3446      H3451   1.083       .  S
C3446      C3447   1.437       .  A
C3447      C3448   1.418       .  A
C3447      O3452   1.370       .  S
C3448      C3449   1.414       .  A
C3449      H3453   1.084       .  S
C3449      C3450   1.405       .  A
C3450      O3454   1.373       .  S
O3452      H3456   0.991       .  S
O3454      H3455   0.992       .  S
C3457      C3458   1.402       .  A
C3457      C3462   1.410       .  A
C3458      H3463   1.084       .  S
C3458      C3459   1.396       .  A
C3459      C3460   1.410       .  A
C3459      O3464   1.375       .  S
C3460      C3461   1.409       .  A
C3461      H3465   1.083       .  S
C3461      C3462   1.413       .  A
C3462      O3466   1.371       .  S
O3464      H3468   0.991       .  S
O3466      H3467   0.992       .  S
C3469      C3470   1.392       .  A
C3469      C3474   1.414       .  A
C3470      H3475   1.084       .  S
C3470      C3471   1.385   1_556  A
C3471      C3472   1.405       .  A
C3471      O3476   1.368       .  S
C3472      C3473   1.394       .  A
C3473      H3477   1.084       .  S
C3473      C3474   1.391   1_554  A
C3474      O3478   1.373       .  S
O3476      H3480   0.992       .  S
O3478      H3479   0.992       .  S
C3481      C3482   1.388       .  A
C3481      C3486   1.399       .  A
C3482      H3487   1.084       .  S
C3482      C3483   1.359   1_655  A
C3483      C3484   1.397       .  A
C3483      O3488   1.373       .  S
C3484      C3485   1.398       .  A
C3485      H3489   1.083       .  S
C3485      C3486   1.388   1_455  A
C3486      O3490   1.370       .  S
O3488      H3492   0.993       .  S
O3490      H3491   0.992       .  S
C3493      C3494   1.391       .  A
C3493      C3498   1.401       .  A
C3494      H3499   1.085       .  S
C3494      C3495   1.362   1_556  A
C3495      C3496   1.396       .  A
C3495      O3500   1.372       .  S
C3496      C3497   1.399       .  A
C3497      H3501   1.084       .  S
C3497      C3498   1.392   1_554  A
C3498      O3502   1.365       .  S
O3500      H3504   0.993       .  S
O3502      H3503   0.992       .  S
C3505      C3506   1.393       .  A
C3505      C3510   1.405       .  A
C3506      H3511   1.084       .  S
C3506      C3507   1.390   1_545  A
C3507      C3508   1.413       .  A
C3507      O3512   1.371       .  S
C3508      C3509   1.396       .  A
C3509      H3513   1.082       .  S
C3509      C3510   1.381   1_565  A
C3510      O3514   1.374       .  S
O3512      H3516   0.991       .  S
O3514      H3515   0.992       .  S
C3517      C3518   1.408       .  A
C3517      C3522   1.410       .  A
C3518      H3523   1.084       .  S
C3518      C3519   1.413       .  A
C3519      C3520   1.407       .  A
C3519      O3524   1.366       .  S
C3520      C3521   1.405       .  A
C3521      H3525   1.084       .  S
C3521      C3522   1.399       .  A
C3522      O3526   1.372       .  S
O3524      H3528   0.990       .  S
O3526      H3527   0.992       .  S
C3529      C3530   1.400       .  A
C3529      C3534   1.409       .  A
C3530      H3535   1.084       .  S
C3530      C3531   1.386   1_655  A
C3531      C3532   1.402       .  A
C3531      O3536   1.374       .  S
C3532      C3533   1.396       .  A
C3533      H3537   1.084       .  S
C3533      C3534   1.389   1_455  A
C3534      O3538   1.372       .  S
O3536      H3540   0.992       .  S
O3538      H3539   0.991       .  S
C3541      C3542   1.402       .  A
C3541      C3546   1.404       .  A
C3542      H3547   1.084       .  S
C3542      C3543   1.387   1_545  A
C3543      C3544   1.406       .  A
C3543      O3548   1.373       .  S
C3544      C3545   1.403       .  A
C3545      H3549   1.084       .  S
C3545      C3546   1.384   1_565  A
C3546      O3550   1.371       .  S
O3548      H3552   0.992       .  S
O3550      H3551   0.991       .  S
C3553      C3554   1.410       .  A
C3553      C3558   1.412       .  A
C3554      H3559   1.084       .  S
C3554      C3555   1.394       .  A
C3555      C3556   1.412       .  A
C3555      O3560   1.372       .  S
C3556      C3557   1.418       .  A
C3557      H3561   1.083       .  S
C3557      C3558   1.421       .  A
C3558      O3562   1.370       .  S
O3560      H3564   0.992       .  S
O3562      H3563   0.992       .  S
C3565      C3566   1.408       .  A
C3565      C3570   1.415       .  A
C3566      H3571   1.084       .  S
C3566      C3567   1.405       .  A
C3567      C3568   1.409       .  A
C3567      O3572   1.372       .  S
C3568      C3569   1.411       .  A
C3569      H3573   1.083       .  S
C3569      C3570   1.422       .  A
C3570      O3574   1.368       .  S
O3572      H3576   0.992       .  S
O3574      H3575   0.991       .  S
C3577      C3578   1.403       .  A
C3577      C3582   1.398       .  A
C3578      H3583   1.083       .  S
C3578      C3579   1.400       .  A
C3579      C3580   1.402       .  A
C3579      O3584   1.371       .  S
C3580      C3581   1.391       .  A
C3581      H3585   1.080       .  S
C3581      C3582   1.370       .  A
C3582      O3586   1.375       .  S
O3584      H3588   0.992       .  S
O3586      H3587   0.993       .  S
C3589      C3590   1.398       .  A
C3589      C3594   1.400       .  A
C3590      H3595   1.084       .  S
C3590      C3591   1.393       .  A
C3591      C3592   1.400       .  A
C3591      O3596   1.369       .  S
C3592      C3593   1.389       .  A
C3593      H3597   1.085       .  S
C3593      C3594   1.370       .  A
C3594      O3598   1.370       .  S
O3596      H3600   0.992       .  S
O3598      H3599   0.993       .  S
C3601      C3602   1.406       .  A
C3601      C3606   1.393       .  A
C3602      H3607   1.082       .  S
C3602      C3603   1.390       .  A
C3603      C3604   1.400       .  A
C3603      O3608   1.370       .  S
C3604      C3605   1.401       .  A
C3605      H3609   1.077       .  S
C3605      C3606   1.384       .  A
C3606      O3610   1.373       .  S
O3608      H3612   0.991       .  S
O3610      H3611   0.992       .  S
C3613      C3614   1.398       .  A
C3613      C3618   1.404       .  A
C3614      H3619   1.079       .  S
C3614      C3615   1.393       .  A
C3615      C3616   1.388       .  A
C3615      O3620   1.366       .  S
C3616      C3617   1.400       .  A
C3617      H3621   1.084       .  S
C3617      C3618   1.393       .  A
C3618      O3622   1.367       .  S
O3620      H3624   0.992       .  S
O3622      H3623   0.991       .  S
C3625      C3626   1.396       .  A
C3625      C3630   1.410       .  A
C3626      H3631   1.084       .  S
C3626      C3627   1.384       .  A
C3627      C3628   1.407       .  A
C3627      O3632   1.371       .  S
C3628      C3629   1.397       .  A
C3629      H3633   1.084       .  S
C3629      C3630   1.387       .  A
C3630      O3634   1.372       .  S
O3632      H3636   0.992       .  S
O3634      H3635   0.992       .  S
C3637      C3638   1.400       .  A
C3637      C3642   1.404       .  A
C3638      H3643   1.084       .  S
C3638      C3639   1.384       .  A
C3639      C3640   1.405       .  A
C3639      O3644   1.372       .  S
C3640      C3641   1.397       .  A
C3641      H3645   1.084       .  S
C3641      C3642   1.384       .  A
C3642      O3646   1.375       .  S
O3644      H3648   0.991       .  S
O3646      H3647   0.993       .  S
C3649      C3650   1.398       .  A
C3649      C3654   1.394       .  A
C3650      H3655   1.085       .  S
C3650      C3651   1.388       .  A
C3651      C3652   1.401       .  A
C3651      O3656   1.361       .  S
C3652      C3653   1.403       .  A
C3653      H3657   1.083       .  S
C3653      C3654   1.389       .  A
C3654      O3658   1.373       .  S
O3656      H3660   0.992       .  S
O3658      H3659   0.991       .  S
C3661      C3662   1.399       .  A
C3661      C3666   1.406       .  A
C3662      H3667   1.083       .  S
C3662      C3663   1.395       .  A
C3663      C3664   1.412       .  A
C3663      O3668   1.372       .  S
C3664      C3665   1.392       .  A
C3665      H3669   1.084       .  S
C3665      C3666   1.371       .  A
C3666      O3670   1.372       .  S
O3668      H3672   0.992       .  S
O3670      H3671   0.993       .  S
C3673      C3674   1.404       .  A
C3673      C3678   1.415       .  A
C3674      H3679   1.084       .  S
C3674      C3675   1.398       .  A
C3675      C3676   1.410       .  A
C3675      O3680   1.372       .  S
C3676      C3677   1.409       .  A
C3677      H3681   1.083       .  S
C3677      C3678   1.418       .  A
C3678      O3682   1.371       .  S
O3680      H3684   0.990       .  S
O3682      H3683   0.992       .  S
C3685      C3686   1.401       .  A
C3685      C3690   1.405       .  A
C3686      H3691   1.084       .  S
C3686      C3687   1.390       .  A
C3687      C3688   1.408       .  A
C3687      O3692   1.372       .  S
C3688      C3689   1.401       .  A
C3689      H3693   1.084       .  S
C3689      C3690   1.386       .  A
C3690      O3694   1.374       .  S
O3692      H3696   0.992       .  S
O3694      H3695   0.992       .  S
C3697      C3698   1.397       .  A
C3697      C3702   1.405       .  A
C3698      H3703   1.084       .  S
C3698      C3699   1.388       .  A
C3699      C3700   1.408       .  A
C3699      O3704   1.373       .  S
C3700      C3701   1.393       .  A
C3701      H3705   1.085       .  S
C3701      C3702   1.384       .  A
C3702      O3706   1.372       .  S
O3704      H3708   0.992       .  S
O3706      H3707   0.992       .  S
C3709      C3710   1.389       .  A
C3709      C3714   1.405       .  A
C3710      H3715   1.084       .  S
C3710      C3711   1.379       .  A
C3711      C3712   1.408       .  A
C3711      O3716   1.373       .  S
C3712      C3713   1.385       .  A
C3713      H3717   1.086       .  S
C3713      C3714   1.372       .  A
C3714      O3718   1.373       .  S
O3716      H3720   0.992       .  S
O3718      H3719   0.992       .  S
C3721      C3722   1.378       .  A
C3721      C3726   1.410       .  A
C3722      H3727   1.086       .  S
C3722      C3723   1.375       .  A
C3723      C3724   1.417       .  A
C3723      O3728   1.368       .  S
C3724      C3725   1.393       .  A
C3725      H3729   1.080       .  S
C3725      C3726   1.394       .  A
C3726      O3730   1.371       .  S
O3728      H3732   0.992       .  S
O3730      H3731   0.991       .  S
C3733      C3734   1.408       .  A
C3733      C3738   1.418       .  A
C3734      H3739   1.083       .  S
C3734      C3735   1.409       .  A
C3735      C3736   1.416       .  A
C3735      O3740   1.371       .  S
C3736      C3737   1.407       .  A
C3737      H3741   1.083       .  S
C3737      C3738   1.410       .  A
C3738      O3742   1.371       .  S
O3740      H3744   0.992       .  S
O3742      H3743   0.992       .  S
C3745      C3746   1.405       .  A
C3745      C3750   1.419       .  A
C3746      H3751   1.083       .  S
C3746      C3747   1.399       .  A
C3747      C3748   1.419       .  A
C3747      O3752   1.373       .  S
C3748      C3749   1.411       .  A
C3749      H3753   1.083       .  S
C3749      C3750   1.423       .  A
C3750      O3754   1.371       .  S
O3752      H3756   0.991       .  S
O3754      H3755   0.992       .  S
