geometry optimzed in LAMMPS
_audit_creation_date              2020-11-30 
_audit_creation_method            'lammps2cif' 
_symmetry_space_group_name_H-M    'P1' 
_symmetry_Int_Tables_number       1 
_symmetry_cell_setting            triclinic 
loop_ 
_symmetry_equiv_pos_as_xyz 
  x,y,z 
_cell_length_a                    38.007470916068726 
_cell_length_b                    38.01171593114913 
_cell_length_c                    38.04611636722557 
_cell_angle_alpha                 90.05339843940284 
_cell_angle_beta                  89.9965847561747 
_cell_angle_gamma                 89.92941433450548 
loop_ 
_atom_site_label 
_atom_site_type_symbol 
_atom_site_fract_x 
_atom_site_fract_y 
_atom_site_fract_z 
_atom_site_charge 
O1          O  0.50641949  0.47438032  0.56160553    -0.88310
C2          C  0.51428725  0.42739563  0.46635257     0.87720
Mg3        Mg  0.46003948  0.50190107  0.57750538     1.58150
O4          O  0.56230470  0.50538054  0.47436255    -0.88040
O5          O  0.56276574  0.48471495  0.55457223    -0.75370
C6          C  0.41959956  0.60365648  0.44124475     0.92770
O7          O  0.44624246  0.43801394  0.51519884    -0.75190
O8          O  0.40524397  0.58780104  0.46695272    -0.82690
Mg9        Mg  0.49891550  0.42259503  0.54062043     1.57960
C10         C  0.56065072  0.58101802  0.39841658     0.92690
O11         O  0.54930904  0.40188002  0.56699588    -0.80950
H12         H  0.59811788  0.53398939  0.50007523    -0.06300
C13         C  0.46676984  0.51428035  0.42723421     0.87630
O14         O  0.48507594  0.55466308  0.56214333    -0.75470
O15         O  0.52648460  0.43827166  0.49448569    -0.88230
O16         O  0.56753684  0.54836494  0.40168334    -0.81040
C17         C  0.60231402  0.43987837  0.41878975     0.92810
C18         C  0.58179506  0.39773361  0.55985504     0.92660
Mg19       Mg  0.50241575  0.57766174  0.46013234     1.57950
O20         O  0.45204686  0.59942800  0.43359235    -0.80960
O21         O  0.55461066  0.56144906  0.48583516    -0.75200
O22         O  0.59873059  0.43246329  0.45126758    -0.81040
O23         O  0.46799393  0.40482166  0.58796819    -0.82750
O24         O  0.40074089  0.56602338  0.54827698    -0.81070
C25         C  0.57294672  0.53348279  0.48685730     0.87100
O26         O  0.47428724  0.56175298  0.50595880    -0.88210
O27         O  0.49490351  0.52608098  0.43851723    -0.88320
O28         O  0.43867572  0.51532788  0.44529733    -0.75380
Mg29       Mg  0.57830606  0.45918877  0.50192851     1.57970
O30         O  0.58800599  0.46665406  0.40478146    -0.82750
H31         H  0.53522158  0.49915102  0.59796398    -0.06480
O32         O  0.43889066  0.49426103  0.52567736    -0.88020
H33         H  0.40260433  0.46531286  0.50098725    -0.06300
H34         H  0.49861661  0.59838620  0.53477502    -0.06480
C35         C  0.42796073  0.46599231  0.51383806     0.87070
C36         C  0.53465799  0.48622790  0.57264644     0.87660
C37         C  0.48604527  0.57289650  0.53417530     0.87700
H38         H  0.46634214  0.50164835  0.40176681    -0.06460
O39         O  0.51533071  0.44567279  0.43841553    -0.75480
Mg40       Mg  0.42275899  0.54030331  0.49794051     1.58000
H41         H  0.50131172  0.40210858  0.46579366    -0.06470
C42         C  0.44102195  0.41880361  0.60194810     0.92690
O43         O  0.41270857  0.53299649  0.59520939    -0.82710
C44         C  0.39673249  0.55856869  0.58071079     0.92750
O45         O  0.59621090  0.41190438  0.53324701    -0.82700
Mg46       Mg  0.54092855  0.49809932  0.42266856     1.58180
O47         O  0.43345599  0.45124718  0.59806276    -0.81030
O48         O  0.53453815  0.59558252  0.41346543    -0.82720
O49         O  0.99506197  0.47356937  0.43840595    -0.88310
C50         C  0.98709313  0.42656378  0.53369124     0.87720
Mg51       Mg  0.04127701  0.50112832  0.42236825     1.58150
O52         O  0.93859239  0.50472288  0.52552579    -0.88040
O53         O  0.93868592  0.48368906  0.44528980    -0.75370
C54         C  0.08006194  0.60381885  0.55820422     0.92770
O55         O  0.05546679  0.43783955  0.48466329    -0.75190
O56         O  0.09427905  0.58926863  0.53160190    -0.82690
Mg57       Mg  0.00281549  0.42181334  0.45930018     1.57960
C58         C  0.94069674  0.58002646  0.60300821     0.92690
O59         O  0.95254580  0.40078040  0.43289124    -0.80950
H60         H  0.90162602  0.53301832  0.50103998    -0.06300
C61         C  0.03437395  0.51440822  0.57215414     0.87630
O62         O  0.01552988  0.55391860  0.43722290    -0.75470
O63         O  0.97491337  0.43735288  0.50553906    -0.88230
O64         O  0.93353043  0.54756118  0.59865324    -0.81040
C65         C  0.89720904  0.44037683  0.58094327     0.92810
C66         C  0.92003541  0.39664358  0.43989075     0.92660
Mg67       Mg  0.99751119  0.57716390  0.53974793     1.57950
O68         O  0.04788902  0.59845625  0.56599749    -0.80960
O69         O  0.94493422  0.56102354  0.51471999    -0.75200
O70         O  0.90118884  0.43263241  0.54850550    -0.81040
O71         O  0.03348654  0.40436895  0.41151727    -0.82750
O72         O  0.09814853  0.56736720  0.45012005    -0.81070
C73         C  0.92709684  0.53278054  0.51368176     0.87100
O74         O  0.02534060  0.56130579  0.49350649    -0.88210
O75         O  0.00593531  0.52558562  0.56092294    -0.88320
O76         O  0.06243791  0.51612585  0.55406231    -0.75380
Mg77       Mg  0.92295817  0.45839565  0.49786910     1.57970
O78         O  0.91346476  0.46594627  0.59507781    -0.82750
H79         H  0.96622820  0.49816081  0.40196899    -0.06480
O80         O  0.06225687  0.49416887  0.47409521    -0.88020
H81         H  0.09871357  0.46562640  0.49907987    -0.06300
H82         H  0.00062641  0.59745087  0.46437225    -0.06480
C83         C  0.07341068  0.46603342  0.48611058     0.87070
C84         C  0.96680709  0.48529148  0.42729026     0.87660
C85         C  0.01365203  0.57216821  0.46517518     0.87700
H86         H  0.03516586  0.50188310  0.59764169    -0.06460
O87         O  0.98598529  0.44495123  0.56157646    -0.75480
Mg88       Mg  0.07746543  0.54110998  0.50110906     1.58000
H89         H  0.00012438  0.40127820  0.53430396    -0.06470
C90         C  0.05989014  0.41857128  0.39676241     0.92690
O91         O  0.08881710  0.53177686  0.40453965    -0.82710
C92         C  0.10326984  0.55865586  0.41811407     0.92750
O93         O  0.90542470  0.41084397  0.46644373    -0.82700
Mg94       Mg  0.96027068  0.49740771  0.57712563     1.58180
O95         O  0.06808541  0.45067606  0.40185852    -0.81030
O96         O  0.96616453  0.59492114  0.58726955    -0.82720
O97         O  0.47297256  0.43902351  0.99502646    -0.88310
C98         C  0.42768642  0.53552975  0.98666002     0.87720
Mg99       Mg  0.50058839  0.42253018  0.04082079     1.58150
O100        O  0.50608410  0.52657858  0.93935526    -0.88040
O101        O  0.48501694  0.44673333  0.93915287    -0.75370
C102        C  0.60280804  0.55832196  0.08279032     0.92770
O103        O  0.43759598  0.48638753  0.05522911    -0.75190
O104        O  0.58796155  0.53138217  0.09585233    -0.82690
Mg105      Mg  0.42153229  0.46134491  0.00269057     1.57960
C106        C  0.58278321  0.60268618  0.94111032     0.92690
O107        O  0.39997053  0.43491026  0.95233135    -0.80950
H108        H  0.53486153  0.50221324  0.90264810    -0.06300
C109        C  0.51402648  0.57303095  0.03487610     0.87630
O110        O  0.55311584  0.43838498  0.01527302    -0.75470
O111        O  0.43835260  0.50705706  0.97494543    -0.88230
O112        O  0.55035207  0.59815939  0.93353731    -0.81040
C113        C  0.44115550  0.58213765  0.89808037     0.92810
C114        C  0.39729179  0.44136392  0.91956513     0.92660
Mg115      Mg  0.57777483  0.54102417  0.99921261     1.57950
O116        O  0.59824368  0.56674019  0.05064932    -0.80960
O117        O  0.56243769  0.51621574  0.94615203    -0.75200
O118        O  0.43293543  0.54995958  0.90294027    -0.81040
O119        O  0.40312571  0.41472191  0.03405591    -0.82750
O120        O  0.56683572  0.45018079  0.09769708    -0.81070
C121        C  0.53430943  0.51484355  0.92811410     0.87100
O122        O  0.56106312  0.49450033  0.02604451    -0.88210
O123        O  0.52618250  0.56251913  0.00654125    -0.88320
O124        O  0.51521286  0.55441216  0.06264531    -0.75380
Mg125      Mg  0.45973219  0.49915976  0.92339886     1.57970
O126        O  0.46839531  0.59591845  0.91180242    -0.82750
H127        H  0.49824111  0.40283976  0.96639790    -0.06480
O128        O  0.49356723  0.47423581  0.06230438    -0.88020
H129        H  0.46537906  0.49949480  0.09883792    -0.06300
H130        H  0.59670519  0.46538666  0.00052258    -0.06480
C131        C  0.46563156  0.48675181  0.07342329     0.87070
C132        C  0.48542367  0.42823692  0.96695390     0.87660
C133        C  0.57155168  0.46622785  0.01376270     0.87700
H134        H  0.50112637  0.59837482  0.03581796    -0.06460
O135        O  0.44612623  0.56338715  0.98505953    -0.75480
Mg136      Mg  0.54026734  0.50127808  0.07785716     1.58000
H137        H  0.40233921  0.53653825  0.99951512    -0.06470
C138        C  0.41712429  0.39772788  0.05918396     0.92690
O139        O  0.53187210  0.40402506  0.08809964    -0.82710
C140        C  0.55897936  0.41786543  0.10197114     0.92750
O141        O  0.41290560  0.46716161  0.90508916    -0.82700
Mg142      Mg  0.49906560  0.57838008  0.95987362     1.58180
O143        O  0.44979488  0.40089080  0.06642308    -0.81030
O144        O  0.59639741  0.58871758  0.96830428    -0.82720
O145        O  0.47770535  0.99930532  0.43591104    -0.88310
C146        C  0.42330469  0.01114342  0.52712630     0.87720
Mg147      Mg  0.51016508  0.95462884  0.42566381     1.58150
O148        O  0.49866427  0.06392003  0.52089897    -0.88040
O149        O  0.48389672  0.05658226  0.43955440    -0.75370
C150        C  0.60024176  0.93112802  0.57372602     0.92770
O151        O  0.44240191  0.93972132  0.48384750    -0.75190
O152        O  0.58871274  0.91361311  0.54767173    -0.82690
Mg153      Mg  0.42525374  0.98916073  0.45381237     1.57960
C154        C  0.56848684  0.07264410  0.60257933     0.92690
O155        O  0.40237710  0.03569500  0.42243106    -0.80950
H156        H  0.52694367  0.09987009  0.49502299    -0.06300
C157        C  0.50841646  0.97291152  0.57523255     0.87630
O158        O  0.55881400  0.98514977  0.44375805    -0.75470
O159        O  0.43572363  0.02136629  0.49886368    -0.88230
O160        O  0.53595190  0.07786305  0.59596943    -0.81040
C161        C  0.42642247  0.10319258  0.56841603     0.92810
C162        C  0.39540121  0.06814649  0.42727967     0.92660
Mg163      Mg  0.57239856  0.01016144  0.54537654     1.57950
O164        O  0.59391024  0.96379298  0.57769296    -0.80960
O165        O  0.55583699  0.05943932  0.51454258    -0.75200
O166        O  0.42179532  0.09631538  0.53589303    -0.81040
O167        O  0.41380682  0.95341531  0.40760933    -0.82750
O168        O  0.57599339  0.90285360  0.46454255    -0.81070
C169        C  0.52695264  0.07567546  0.50993538     0.87100
O170        O  0.56212396  0.97798395  0.50085182    -0.88210
O171        O  0.51987868  0.00093000  0.56327621    -0.88320
O172        O  0.51271835  0.94373794  0.55940747    -0.75380
Mg173      Mg  0.45363736  0.07397935  0.48891342     1.57970
O174        O  0.45337282  0.09253753  0.58513490    -0.82750
H175        H  0.50293765  0.02721832  0.39923967    -0.06480
O176        O  0.49965148  0.93603770  0.47789234    -0.88020
H177        H  0.47157593  0.89919326  0.50267863    -0.06300
H178        H  0.59887392  0.00379847  0.47360231    -0.06480
C179        C  0.47141024  0.92370249  0.48828917     0.87070
C180        C  0.48835647  0.02749437  0.42363661     0.87660
C181        C  0.57455248  0.98909696  0.47294373     0.87700
H182        H  0.49327610  0.97342998  0.59928309    -0.06460
O183        O  0.43900046  0.01629954  0.55619239    -0.75480
Mg184      Mg  0.54373027  0.92558895  0.51077851     1.58000
H185        H  0.39889060  0.99658505  0.52700302    -0.06470
C186        C  0.43118217  0.92750833  0.39546585     0.92690
O187        O  0.54734777  0.90950024  0.41369229    -0.82710
C188        C  0.57284240  0.89727239  0.43163348     0.92750
O189        O  0.40781175  0.08543143  0.45310496    -0.82700
Mg190      Mg  0.48865992  0.04637463  0.57347505     1.58180
O191        O  0.46367050  0.92287069  0.40266163    -0.81030
O192        O  0.58458695  0.04591527  0.59064565    -0.82720
O193        O  0.02512412  0.43842430  0.00649126    -0.88310
C194        C  0.07272930  0.53380509  0.01465161     0.87720
Mg195      Mg  0.99779283  0.42200329  0.96035189     1.58150
O196        O  0.99390873  0.52618981  0.06161418    -0.88040
O197        O  0.01452882  0.44579541  0.06266395    -0.75370
C198        C  0.89819986  0.55969374  0.91737706     0.92770
O199        O  0.06192002  0.48439652  0.94626317    -0.75190
O200        O  0.91307571  0.53318669  0.90329674    -0.82690
Mg201      Mg  0.07682276  0.45948356  0.99914980     1.57960
C202        C  0.91920327  0.60355440  0.05829027     0.92690
O203        O  0.09738519  0.43337416  0.04963108    -0.80950
H204        H  0.96447634  0.50166755  0.09757978    -0.06300
C205        C  0.98676669  0.57250849  0.96561335     0.87630
O206        O  0.94501422  0.43834963  0.98496415    -0.75470
O207        O  0.06114069  0.50580502  0.02643276    -0.88230
O208        O  0.95145498  0.59898426  0.06621241    -0.81040
C209        C  0.05874954  0.58133457  0.10361550     0.92810
C210        C  0.10209257  0.44070753  0.08194952     0.92660
Mg211      Mg  0.92255461  0.54111089  0.00082223     1.57950
O212        O  0.90187476  0.56725557  0.94985402    -0.80960
O213        O  0.93766576  0.51591288  0.05370346    -0.75200
O214        O  0.06641821  0.54897649  0.09924925    -0.81040
O215        O  0.09459833  0.41215628  0.96859419    -0.82750
O216        O  0.93442722  0.45088582  0.90000306    -0.81070
C217        C  0.96546901  0.51447200  0.07223945     0.87100
O218        O  0.93813177  0.49447509  0.97338689    -0.88210
O219        O  0.97457816  0.56179357  0.99378054    -0.88320
O220        O  0.98551686  0.55413763  0.93771226    -0.75380
Mg221      Mg  0.03994432  0.49845892  0.07807497     1.57970
O222        O  0.03256984  0.59527604  0.08805514    -0.82750
H223        H  0.00028597  0.40220598  0.03534234    -0.06480
O224        O  0.00581182  0.47354002  0.93855085    -0.88020
H225        H  0.03498932  0.49782741  0.90223234    -0.06300
H226        H  0.90137272  0.46620331  0.99810552    -0.06480
C227        C  0.03413787  0.48530419  0.92771755     0.87070
C228        C  0.01318651  0.42752832  0.03470078     0.87660
C229        C  0.92688389  0.46647190  0.98554311     0.87700
H230        H  0.99979803  0.59776240  0.96495433    -0.06460
O231        O  0.05483592  0.56204412  0.01553789    -0.75480
Mg232      Mg  0.96012121  0.50155982  0.92185693     1.58000
H233        H  0.09830755  0.53399436  0.00222396    -0.06470
C234        C  0.08112203  0.39709057  0.94201952     0.92690
O235        O  0.96675555  0.40394958  0.91333302    -0.82710
C236        C  0.94159788  0.41821533  0.89654849     0.92750
O237        O  0.08727929  0.46722833  0.09609006    -0.82700
Mg238      Mg  0.00196719  0.57775322  0.04027556     1.58180
O239        O  0.04859223  0.40023689  0.93432543    -0.81030
O240        O  0.90500002  0.58886958  0.03180348    -0.82720
O241        O  0.00532491  0.02572366  0.43869413    -0.88310
C242        C  0.01491823  0.07205569  0.53399885     0.87720
Mg243      Mg  0.95873415  0.99869155  0.42312088     1.58150
O244        O  0.06209730  0.99340611  0.52483931    -0.88040
O245        O  0.06158961  0.01439457  0.44487550    -0.75370
C246        C  0.92001926  0.89657110  0.55971975     0.92770
O247        O  0.94587876  0.06197286  0.48624580    -0.75190
O248        O  0.90464852  0.91214537  0.53437291    -0.82690
Mg249      Mg  0.99832939  0.07736642  0.46036670     1.57960
C250        C  0.06050041  0.91795065  0.60154686     0.92690
O251        O  0.04861398  0.09809438  0.43352143    -0.80950
H252        H  0.09824449  0.96472251  0.49955502    -0.06300
C253        C  0.96694429  0.98525467  0.57281271     0.87630
O254        O  0.98364400  0.94561112  0.43784506    -0.75470
O255        O  0.02659932  0.06103789  0.50570911    -0.88230
O256        O  0.06768153  0.95038205  0.59721677    -0.81040
C257        C  0.10349282  0.05840480  0.58013782     0.92810
C258        C  0.08138479  0.10128202  0.44000562     0.92660
Mg259      Mg  0.00242340  0.92180128  0.53949994     1.57950
O260        O  0.95264209  0.90062667  0.56603967    -0.80960
O261        O  0.05471876  0.93732120  0.51367128    -0.75200
O262        O  0.09974519  0.06579663  0.54769570    -0.81040
O263        O  0.96659711  0.09577041  0.41396936    -0.82750
O264        O  0.89989070  0.93359258  0.45195592    -0.81070
C265        C  0.07298343  0.96526595  0.51260448     0.87100
O266        O  0.97373274  0.93809456  0.49407493    -0.88210
O267        O  0.99492264  0.97340497  0.56108241    -0.88320
O268        O  0.93856779  0.98437132  0.55516531    -0.75380
Mg269      Mg  0.07811166  0.03940309  0.49735105     1.57970
O270        O  0.08849964  0.03181522  0.59381199    -0.82750
H271        H  0.03330955  0.00090660  0.40169569    -0.06480
O272        O  0.93781765  0.00594052  0.47502111    -0.88020
H273        H  0.90215219  0.03498229  0.50059188    -0.06300
H274        H  0.99756056  0.90159711  0.46460676    -0.06480
C275        C  0.92733362  0.03418612  0.48740085     0.87070
C276        C  0.03326103  0.01359572  0.42713777     0.87660
C277        C  0.98506279  0.92713815  0.46562205     0.87700
H278        H  0.96689891  0.99779961  0.59832646    -0.06460
O279        O  0.01595721  0.05364009  0.56181470    -0.75480
Mg280      Mg  0.92199806  0.95953057  0.50265265     1.58000
H281        H  0.00232861  0.09756070  0.53478325    -0.06470
C282        C  0.94017767  0.08213424  0.39863659     0.92690
O283        O  0.91110212  0.96827514  0.40600463    -0.82710
C284        C  0.89590867  0.94179791  0.41965072     0.92750
O285        O  0.09597353  0.08620667  0.46602098    -0.82700
Mg286      Mg  0.04122818  0.00084786  0.57656442     1.58180
O287        O  0.93282542  0.04959424  0.40211318    -0.81030
O288        O  0.03421680  0.90370571  0.58648144    -0.82720
O289        O  0.43755239  0.00650442  0.02596430    -0.88310
C290        C  0.53342147  0.01478549  0.07188178     0.87720
Mg291      Mg  0.42177372  0.95958879  0.99899612     1.58150
O292        O  0.52509794  0.06252998  0.99349515    -0.88040
O293        O  0.44486530  0.06272937  0.01494594    -0.75370
C294        C  0.55792738  0.91968972  0.89622623     0.92770
O295        O  0.48442439  0.94654810  0.06195976    -0.75190
O296        O  0.53226807  0.90492099  0.91188037    -0.82690
Mg297      Mg  0.45905703  0.99932957  0.07753365     1.57960
C298        C  0.60160527  0.05917626  0.91755565     0.92690
O299        O  0.43318685  0.05010964  0.09874835    -0.80950
H300        H  0.49993611  0.09898271  0.96517234    -0.06300
C301        C  0.57182275  0.96677239  0.98471032     0.87630
O302        O  0.43620441  0.98459679  0.94589360    -0.75470
O303        O  0.50516019  0.02680610  0.06110233    -0.88230
O304        O  0.59846051  0.06625006  0.95017702    -0.81040
C305        C  0.58135920  0.10226581  0.05850588     0.92810
C306        C  0.44103394  0.08247135  0.10276287     0.92660
Mg307      Mg  0.53816157  0.00263464  0.92160893     1.57950
O308        O  0.56427731  0.95236689  0.90003642    -0.80960
O309        O  0.51308846  0.05520610  0.93759614    -0.75200
O310        O  0.54884358  0.09894120  0.06611280    -0.81040
O311        O  0.41152886  0.96845178  0.09585309    -0.82750
O312        O  0.44999846  0.90173679  0.93360342    -0.81070
C313        C  0.51267332  0.07354314  0.96553036     0.87100
O314        O  0.49254243  0.97460637  0.93823248    -0.88210
O315        O  0.56032241  0.99489182  0.97303981    -0.88320
O316        O  0.55381400  0.93864778  0.98390657    -0.75380
Mg317      Mg  0.49778800  0.07854897  0.03986677     1.57970
O318        O  0.59500506  0.08805881  0.03148777    -0.82750
H319        H  0.40122185  0.03529369  0.00108089    -0.06480
O320        O  0.47379694  0.93907825  0.00580129    -0.88020
H321        H  0.49900519  0.90303207  0.03462048    -0.07420
H322        H  0.46300634  0.99861126  0.90195160    -0.06480
C323        C  0.48593378  0.92829613  0.03397825     0.87070
C324        C  0.42661340  0.03470516  0.01386915     0.87660
C325        C  0.46403704  0.98604766  0.92741177     0.87700
H326        H  0.59744073  0.96639741  0.99705192    -0.06460
O327        O  0.56126546  0.01581434  0.05342632    -0.75480
Mg328      Mg  0.50095450  0.92291306  0.95935538     1.58000
H329        H  0.53419611  0.00204125  0.09726110    -0.06470
C330        C  0.39778414  0.94111237  0.08230754     0.92690
O331        O  0.40413237  0.91157549  0.96868230    -0.82710
C332        C  0.41781258  0.89690457  0.94191942     0.92750
O333        O  0.46696763  0.09674155  0.08726070    -0.82700
Mg334      Mg  0.57674684  0.04080852  0.00064769     1.58180
O335        O  0.40222818  0.93301343  0.05006667    -0.81030
O336        O  0.58491785  0.03410724  0.90301029    -0.82720
O337        O  0.06096847  0.00552460  0.97510181    -0.88310
C338        C  0.96603445  0.01203199  0.92713457     0.87720
Mg339      Mg  0.07699005  0.95955433  0.00297064     1.58150
O340        O  0.97267990  0.06064636  0.00517250    -0.88040
O341        O  0.05319074  0.06179541  0.98501765    -0.75370
C342        C  0.93989672  0.91926988  0.10383591     0.92770
O343        O  0.01591968  0.94481654  0.93856511    -0.75190
O344        O  0.96692578  0.90523000  0.08988317    -0.82690
Mg345      Mg  0.04099987  0.99782985  0.92305105     1.57960
C346        C  0.89546825  0.05941967  0.07947905     0.92690
O347        O  0.06771147  0.04938437  0.90325251    -0.80950
H348        H  0.99653492  0.09786298  0.03365708    -0.06300
C349        C  0.92649267  0.96490745  0.01428046     0.87630
O350        O  0.06085867  0.98501860  0.05546415    -0.75470
O351        O  0.99392372  0.02462183  0.93823564    -0.88230
O352        O  0.89975313  0.06606236  0.04694555    -0.81040
C353        C  0.91750739  0.10085233  0.93908898     0.92810
C354        C  0.05903233  0.08158908  0.89884039     0.92660
Mg355      Mg  0.95776308  0.00184577  0.07734888     1.57950
O356        O  0.93139085  0.95126687  0.09833540    -0.80960
O357        O  0.98276342  0.05455932  0.06158896    -0.75200
O358        O  0.95013440  0.09695166  0.93260806    -0.81040
O359        O  0.08898979  0.96696069  0.90586750    -0.82750
O360        O  0.04842218  0.90171441  0.06819296    -0.81070
C361        C  0.98407812  0.07231107  0.03332600     0.87100
O362        O  0.00458104  0.97435902  0.06223688    -0.88210
O363        O  0.93738551  0.99341674  0.02555832    -0.88320
O364        O  0.94481710  0.93698385  0.01622783    -0.75380
Mg365      Mg  0.00040814  0.07640477  0.95921114     1.57970
O366        O  0.90291702  0.08548581  0.96495405    -0.82750
H367        H  0.09687394  0.03487930  0.99988094    -0.06480
O368        O  0.02537940  0.93798665  0.99510705    -0.88020
H369        H  0.00126740  0.90142473  0.96597664    -0.06300
H370        H  0.03301659  0.99941644  0.09868249    -0.06480
C371        C  0.01401108  0.92682504  0.96670653     0.87070
C372        C  0.07162346  0.03393521  0.98683938     0.87660
C373        C  0.03266687  0.98641575  0.07340090     0.87700
H374        H  0.90111706  0.96392701  0.00148798    -0.06460
O375        O  0.93779536  0.01302624  0.94502664    -0.75480
Mg376      Mg  0.99769233  0.92229489  0.04172935     1.58000
H377        H  0.96595332  0.99879396  0.90197374    -0.06470
C378        C  0.10380457  0.94079099  0.92054479     0.92690
O379        O  0.09501663  0.91233233  0.03411267    -0.82710
C380        C  0.08075553  0.89740242  0.06036201     0.92750
O381        O  0.03082681  0.09391997  0.91182185    -0.82700
Mg382      Mg  0.92121811  0.03893566  0.99708787     1.58180
O383        O  0.09869715  0.93319104  0.95276336    -0.81030
O384        O  0.90980268  0.03301137  0.09423137    -0.82720
O385        O  0.68665946  0.74963380  0.27235556    -0.88310
C386        C  0.77833804  0.76003245  0.32557700     0.87720
Mg387      Mg  0.67580780  0.70476828  0.24058267     1.58150
O388        O  0.77107421  0.81297034  0.25066431    -0.88040
O389        O  0.69006573  0.80690697  0.26658049    -0.75370
C390        C  0.82155844  0.67982215  0.14692888     0.92770
O391        O  0.73461739  0.68961518  0.30750133    -0.75190
O392        O  0.79536461  0.66346886  0.15967037    -0.82690
Mg393      Mg  0.70481136  0.73931014  0.32469205     1.57960
C394        C  0.85172686  0.82241549  0.17982578     0.92690
O395        O  0.67357011  0.78611699  0.34706559    -0.80950
H396        H  0.74531124  0.84944214  0.22286061    -0.06300
C397        C  0.82576947  0.72213769  0.23884852     0.87630
O398        O  0.69285878  0.73468634  0.19099925    -0.75470
O399        O  0.74990373  0.77092631  0.31401806    -0.88230
O400        O  0.84515294  0.82706345  0.21238748    -0.81040
C401        C  0.81983851  0.85237161  0.32214252     0.92810
C402        C  0.67775374  0.81858941  0.35408231     0.92660
Mg403      Mg  0.79495968  0.75980465  0.17563930     1.57950
O404        O  0.82635135  0.71252808  0.15300247    -0.80960
O405        O  0.76475136  0.80931459  0.19342597    -0.75200
O406        O  0.78756550  0.84514451  0.32805733    -0.81040
O407        O  0.65850367  0.70426929  0.33651130    -0.82750
O408        O  0.71307594  0.65240101  0.17476447    -0.81070
C409        C  0.76010722  0.82513908  0.22254326     0.87100
O410        O  0.75002947  0.72799945  0.18670281    -0.88210
O411        O  0.81343786  0.75018797  0.22790456    -0.88320
O412        O  0.80967570  0.69311945  0.23501815    -0.75380
Mg413      Mg  0.73992730  0.82355375  0.29642819     1.57970
O414        O  0.83539350  0.84107930  0.29483127    -0.82750
H415        H  0.64961384  0.77767410  0.24767975    -0.06480
O416        O  0.72832144  0.68656085  0.25033683    -0.88020
H417        H  0.75324533  0.64930625  0.27783494    -0.06300
H418        H  0.72181790  0.75335203  0.15030204    -0.06480
C419        C  0.73891950  0.67388582  0.27833751     0.87070
C420        C  0.67417995  0.77785915  0.26199685     0.87660
C421        C  0.72176100  0.73884952  0.17473233     0.87700
H422        H  0.85033331  0.72250602  0.25316542    -0.06460
O423        O  0.80711409  0.76473145  0.30918430    -0.75480
Mg424      Mg  0.76001355  0.67572841  0.20544058     1.58000
H425        H  0.77857903  0.74518813  0.34979859    -0.06470
C426        C  0.64619274  0.67818984  0.31953289     0.92690
O427        O  0.66347915  0.65883723  0.20553224    -0.82710
C428        C  0.68067905  0.64559956  0.18013920     0.92750
O429        O  0.70427497  0.83558687  0.34267624    -0.82700
Mg430      Mg  0.82365487  0.79519179  0.25960038     1.58180
O431        O  0.65346327  0.67323170  0.28721612    -0.81030
O432        O  0.84080627  0.79559850  0.16306570    -0.82720
O433        O  0.77447092  0.25667652  0.81091874    -0.88310
C434        C  0.82212787  0.26354156  0.71635076     0.87720
Mg435      Mg  0.74643276  0.21088208  0.82677326     1.58150
O436        O  0.74388002  0.31192642  0.72319864    -0.88040
O437        O  0.76364255  0.31284931  0.80372497    -0.75370
C438        C  0.64544159  0.17008157  0.69038597     0.92770
O439        O  0.81047464  0.19597141  0.76518448    -0.75190
O440        O  0.66013208  0.15578288  0.71679794    -0.82690
Mg441      Mg  0.82638818  0.24863534  0.79048641     1.57960
C442        C  0.66969241  0.30963049  0.64568112     0.92690
O443        O  0.84760923  0.29923779  0.81650220    -0.80950
H444        H  0.71517484  0.34906900  0.74699146    -0.06300
C445        C  0.73449189  0.21605195  0.67670574     0.87630
O446        O  0.69398947  0.23663384  0.81105454    -0.75470
O447        O  0.81120443  0.27631810  0.74422802    -0.88230
O448        O  0.70208993  0.31693678  0.65032638    -0.81040
C449        C  0.81016693  0.35166330  0.66834388     0.92810
C450        C  0.85099465  0.33191764  0.80966518     0.92660
Mg451      Mg  0.67140753  0.25288918  0.70843414     1.57950
O452        O  0.64997785  0.20235289  0.68251462    -0.80960
O453        O  0.68739307  0.30564860  0.73322255    -0.75200
O454        O  0.81619770  0.34922048  0.70122420    -0.81040
O455        O  0.84336846  0.21754244  0.83823192    -0.82750
O456        O  0.68166852  0.15280591  0.79829919    -0.81070
C457        C  0.71562227  0.32349572  0.73454142     0.87100
O458        O  0.68665852  0.22539539  0.75496952    -0.88210
O459        O  0.72323487  0.24444335  0.68795701    -0.88320
O460        O  0.73293896  0.18806671  0.69485211    -0.75380
Mg461      Mg  0.78946352  0.32816798  0.75141748     1.57970
O462        O  0.78471059  0.33577491  0.65356416    -0.82750
H463        H  0.74958897  0.28546258  0.84724348    -0.06480
O464        O  0.75401079  0.18938807  0.77516229    -0.88020
H465        H  0.78276620  0.15271541  0.75069062    -0.06300
H466        H  0.65048127  0.25076679  0.78354340    -0.06480
C467        C  0.78226564  0.17809200  0.76353444     0.87070
C468        C  0.76250425  0.28488170  0.82193238     0.87660
C469        C  0.67575679  0.23770747  0.78306136     0.87700
H470        H  0.74701904  0.21526604  0.65120512    -0.06460
O471        O  0.80388219  0.26392090  0.68837255    -0.75480
Mg472      Mg  0.70772816  0.17340690  0.74769816     1.58000
H473        H  0.84737838  0.25042559  0.71614598    -0.06470
C474        C  0.82897852  0.19100002  0.85266992     0.92690
O475        O  0.71469066  0.16426907  0.84511211    -0.82710
C476        C  0.68834643  0.14929763  0.83094570     0.92750
O477        O  0.83593531  0.34634399  0.78351091    -0.82700
Mg478      Mg  0.75193305  0.28979916  0.67189762     1.58180
O479        O  0.79664566  0.18383828  0.84751158    -0.81030
O480        O  0.65475357  0.28362785  0.66042677    -0.82720
O481        O  0.22381108  0.75548652  0.68947065    -0.88310
C482        C  0.17730109  0.76381733  0.78506732     0.87720
Mg483      Mg  0.25188696  0.70993828  0.67304366     1.58150
O484        O  0.25576819  0.81107812  0.77625761    -0.88040
O485        O  0.23433793  0.81177799  0.69603524    -0.75370
C486        C  0.35329366  0.66764900  0.80888442     0.92770
O487        O  0.18824397  0.69492632  0.73607679    -0.75190
O488        O  0.33771720  0.65329488  0.78301416    -0.82690
Mg489      Mg  0.17222398  0.74737636  0.71098866     1.57960
C490        C  0.33202090  0.80890993  0.85230766     0.92690
O491        O  0.15059327  0.79754499  0.68486038    -0.80950
H492        H  0.28471771  0.84723020  0.75142678    -0.06300
C493        C  0.26409898  0.71537592  0.82319344     0.87630
O494        O  0.30440294  0.73514601  0.68884922    -0.75470
O495        O  0.18829667  0.77543132  0.75675237    -0.88230
O496        O  0.29954000  0.81652180  0.84848795    -0.81040
C497        C  0.19073587  0.85258491  0.83172386     0.92810
C498        C  0.14633177  0.83006979  0.69176998     0.92660
Mg499      Mg  0.32779740  0.75086169  0.79088485     1.57950
O500        O  0.34929308  0.70006366  0.81666423    -0.80960
O501        O  0.31201652  0.80361139  0.76570977    -0.75200
O502        O  0.18327364  0.84799869  0.79938722    -0.81040
O503        O  0.15424347  0.71564104  0.66411333    -0.82750
O504        O  0.31601856  0.65079136  0.70128545    -0.81070
C505        C  0.28403004  0.82191064  0.76432182     0.87100
O506        O  0.31177926  0.72334520  0.74477085    -0.88210
O507        O  0.27605359  0.74359200  0.81226279    -0.88320
O508        O  0.26530375  0.68736421  0.80493125    -0.75380
Mg509      Mg  0.20939543  0.82715924  0.74875916     1.57970
O510        O  0.21743297  0.83800811  0.84579539    -0.82750
H511        H  0.24773161  0.78406680  0.65244325    -0.06480
O512        O  0.24434975  0.68795998  0.72457733    -0.88020
H513        H  0.21599326  0.65130228  0.74931785    -0.06300
H514        H  0.34818334  0.74836275  0.71632025    -0.06480
C515        C  0.21631007  0.67676023  0.73668104     0.87070
C516        C  0.23533104  0.78365286  0.67801261     0.87660
C517        C  0.32275962  0.73565002  0.71675267     0.87700
H518        H  0.25131241  0.71476528  0.84856748    -0.06460
O519        O  0.19562605  0.76511098  0.81299191    -0.75480
Mg520      Mg  0.29032084  0.67165956  0.75209863     1.58000
H521        H  0.15183892  0.75119742  0.78583031    -0.06470
C522        C  0.16885477  0.68996155  0.64830138     0.92690
O523        O  0.28370918  0.66349412  0.65428951    -0.82710
C524        C  0.30972356  0.64792097  0.66848050     0.92750
O525        O  0.16187786  0.84501178  0.71737564    -0.82700
Mg526      Mg  0.24853635  0.79021818  0.82811200     1.58180
O527        O  0.20162176  0.68376379  0.65171751    -0.81030
O528        O  0.34591295  0.78192469  0.83818819    -0.82720
O529        O  0.18656216  0.24872402  0.77171261    -0.88310
C530        C  0.27785827  0.26074451  0.82579047     0.87720
Mg531      Mg  0.17653618  0.20415030  0.73923230     1.58150
O532        O  0.27091483  0.31402557  0.75104199    -0.88040
O533        O  0.18982698  0.30599298  0.76554065    -0.75370
C534        C  0.32282892  0.18348112  0.64546289     0.92770
O535        O  0.23610888  0.18968280  0.80577230    -0.75190
O536        O  0.29687597  0.16584169  0.65705388    -0.82690
Mg537      Mg  0.20521995  0.23841673  0.82400862     1.57960
C538        C  0.35203095  0.32480980  0.68162643     0.92690
O539        O  0.17280129  0.28469454  0.84719816    -0.80950
H540        H  0.24499384  0.35074926  0.72376002    -0.06300
C541        C  0.32601252  0.22348430  0.73858279     0.87630
O542        O  0.19319425  0.23502505  0.69008338    -0.75470
O543        O  0.24950766  0.27113037  0.81362259    -0.88230
O544        O  0.34558333  0.32870103  0.71425428    -0.81040
C545        C  0.31764581  0.35433943  0.82310793     0.92810
C546        C  0.17656414  0.31746859  0.85338603     0.92660
Mg547      Mg  0.29494112  0.26202013  0.67602265     1.57950
O548        O  0.32716872  0.21587025  0.65298999    -0.80960
O549        O  0.26414606  0.31084827  0.69389333    -0.75200
O550        O  0.28545259  0.34636036  0.82821450    -0.81040
O551        O  0.16046587  0.20143062  0.83596001    -0.82750
O552        O  0.21431468  0.15355483  0.67166197    -0.81070
C553        C  0.25984166  0.32648502  0.72311565     0.87100
O554        O  0.25045263  0.22932478  0.68600726    -0.88210
O555        O  0.31346258  0.25172246  0.72833389    -0.88320
O556        O  0.31043071  0.19433986  0.73352437    -0.75380
Mg557      Mg  0.23891836  0.32355012  0.79597797     1.57970
O558        O  0.33447451  0.34266142  0.79659388    -0.82750
H559        H  0.14967645  0.27647529  0.74651085    -0.06480
O560        O  0.22926346  0.18631742  0.74859513    -0.88020
H561        H  0.25544578  0.14982806  0.77595032    -0.06300
H562        H  0.22204975  0.25475057  0.64980659    -0.06480
C563        C  0.24047150  0.17401645  0.77655324     0.87070
C564        C  0.17407957  0.27685551  0.76109869     0.87660
C565        C  0.22209757  0.23990930  0.67403173     0.87700
H566        H  0.35040672  0.22371723  0.75318993    -0.06460
O567        O  0.30683118  0.26578401  0.80991218    -0.75480
Mg568      Mg  0.26108907  0.17673556  0.70325529     1.58000
H569        H  0.27785451  0.24597056  0.85005737    -0.06470
C570        C  0.14857279  0.17546012  0.81850918     0.92690
O571        O  0.16520805  0.15855987  0.70326910    -0.82710
C572        C  0.18205400  0.14606042  0.67720149     0.92750
O573        O  0.20266869  0.33453320  0.84126219    -0.82700
Mg574      Mg  0.32352175  0.29657579  0.76072803     1.58180
O575        O  0.15437883  0.17201311  0.78569849    -0.81030
O576        O  0.34007698  0.29862765  0.66450662    -0.82720
O577        O  0.22856706  0.68595839  0.25089974    -0.88310
C578        C  0.17430614  0.77731653  0.24050080     0.87720
Mg579      Mg  0.26167018  0.67552465  0.29501739     1.58150
O580        O  0.24855533  0.77143611  0.18621092    -0.88040
O581        O  0.23417244  0.68992130  0.19360971    -0.75370
C582        C  0.35575863  0.82177760  0.31636077     0.92770
O583        O  0.19520928  0.73539466  0.31041121    -0.75190
O584        O  0.34414436  0.79561331  0.33365326    -0.82690
Mg585      Mg  0.17635008  0.70477223  0.26192950     1.57960
C586        C  0.31700455  0.85402065  0.17641856     0.92690
O587        O  0.15238053  0.67300284  0.21574102    -0.80950
H588        H  0.27573813  0.74638839  0.14877882    -0.06300
C589        C  0.26208887  0.82558593  0.27735009     0.87630
O590        O  0.31035466  0.69292789  0.26360064    -0.75470
O591        O  0.18638017  0.74919499  0.22936812    -0.88230
O592        O  0.28451578  0.84679398  0.17237816    -0.81040
C593        C  0.17528958  0.81886665  0.14886902     0.92810
C594        C  0.14524454  0.67776717  0.18331194     0.92660
Mg595      Mg  0.32428998  0.79533105  0.23760817     1.57950
O596        O  0.34781227  0.82665021  0.28412956    -0.80960
O597        O  0.30590531  0.76533180  0.18849373    -0.75200
O598        O  0.17143601  0.78605235  0.15475316    -0.81040
O599        O  0.16447042  0.65992620  0.29914502    -0.82750
O600        O  0.32964812  0.71306320  0.34444816    -0.81070
C601        C  0.27649580  0.76086637  0.17323702     0.87100
O602        O  0.31464219  0.75016994  0.26971787    -0.88210
O603        O  0.27199416  0.81324642  0.24891367    -0.88320
O604        O  0.26732833  0.80965943  0.30624246    -0.75380
Mg605      Mg  0.20360758  0.73923888  0.17663063     1.57970
O606        O  0.20158306  0.83602799  0.16042668    -0.82750
H607        H  0.25356828  0.64943806  0.22244244    -0.06480
O608        O  0.25242151  0.72822609  0.31329077    -0.88020
H609        H  0.22540658  0.75443520  0.35003559    -0.06300
H610        H  0.35031410  0.72187541  0.24332891    -0.06480
C611        C  0.22457215  0.73952515  0.32584039     0.87070
C612        C  0.23892865  0.67383756  0.22251069     0.87660
C613        C  0.32634682  0.72186291  0.25862762     0.87700
H614        H  0.24757403  0.85005972  0.27750770    -0.06460
O615        O  0.19022861  0.80635027  0.23615310    -0.75480
Mg616      Mg  0.29779679  0.76004499  0.32266514     1.58000
H617        H  0.15016297  0.77698879  0.25551772    -0.06470
C618        C  0.18253348  0.64733672  0.32433639     0.92690
O619        O  0.29846330  0.66348060  0.34017038    -0.82710
C620        C  0.32485630  0.68063221  0.35146401     0.92750
O621        O  0.15776550  0.70326347  0.16569508    -0.82700
Mg622      Mg  0.23877868  0.82383063  0.20495790     1.58180
O623        O  0.21547377  0.65290415  0.32743426    -0.81030
O624        O  0.33513826  0.84159049  0.20164865    -0.82720
O625        O  0.68672011  0.25108659  0.22854558    -0.88310
C626        C  0.77725721  0.23954003  0.17350599     0.87720
Mg627      Mg  0.67692659  0.29549741  0.26111859     1.58150
O628        O  0.77189858  0.18659453  0.24861794    -0.88040
O629        O  0.69023642  0.19393972  0.23519924    -0.75370
C630        C  0.82367105  0.31796338  0.35352580     0.92770
O631        O  0.73528426  0.31012629  0.19356544    -0.75190
O632        O  0.79790624  0.33528417  0.34102155    -0.82690
Mg633      Mg  0.70448842  0.26117511  0.17603138     1.57960
C634        C  0.85489606  0.17715874  0.31636113     0.92690
O635        O  0.67234146  0.21461612  0.15352744    -0.80950
H636        H  0.74739846  0.14944351  0.27654878    -0.06300
C637        C  0.82682801  0.27748883  0.26019663     0.87630
O638        O  0.69476264  0.26457053  0.30987860    -0.75470
O639        O  0.74918254  0.22860976  0.18581756    -0.88230
O640        O  0.84699697  0.17223482  0.28416480    -0.81040
C641        C  0.81784755  0.14636983  0.17633163     0.92810
C642        C  0.67602874  0.18181835  0.14745109     0.92660
Mg643      Mg  0.79715201  0.23884464  0.32334095     1.57950
O644        O  0.82843197  0.28545874  0.34661701    -0.80960
O645        O  0.76695114  0.18946184  0.30594793    -0.75200
O646        O  0.78504842  0.15244769  0.17262687    -0.81040
O647        O  0.65906472  0.29791246  0.16481070    -0.82750
O648        O  0.71526577  0.34569196  0.32782651    -0.81070
C649        C  0.76186658  0.17391034  0.27681331     0.87100
O650        O  0.75201595  0.27089124  0.31358165    -0.88210
O651        O  0.81450685  0.24930408  0.27075949    -0.88320
O652        O  0.81097143  0.30656760  0.26488634    -0.75380
Mg653      Mg  0.73902856  0.17623331  0.20445927     1.57970
O654        O  0.83582422  0.15948738  0.20128375    -0.82750
H655        H  0.65008217  0.22354179  0.25421305    -0.06480
O656        O  0.72940551  0.31344002  0.25084348    -0.88020
H657        H  0.75484860  0.35006598  0.22305677    -0.06300
H658        H  0.72420084  0.24489216  0.34978410    -0.06480
C659        C  0.74003943  0.32580506  0.22270403     0.87070
C660        C  0.67438554  0.22305851  0.23945811     0.87660
C661        C  0.72387146  0.25990544  0.32566763     0.87700
H662        H  0.85117586  0.27722200  0.24550978    -0.06460
O663        O  0.80641574  0.23533479  0.18930873    -0.75480
Mg664      Mg  0.76175708  0.32356879  0.29557451     1.58000
H665        H  0.77677857  0.25429164  0.14923040    -0.06470
C666        C  0.64703103  0.32378716  0.18240111     0.92690
O667        O  0.66550706  0.34065065  0.29766827    -0.82710
C668        C  0.68262574  0.35227295  0.32396676     0.92750
O669        O  0.70215100  0.16469265  0.15960279    -0.82700
Mg670      Mg  0.82427758  0.20465868  0.23806094     1.58180
O671        O  0.65385794  0.32765862  0.21497682    -0.81030
O672        O  0.84364112  0.20334544  0.33391796    -0.82720
O673        O  0.27495360  0.24348940  0.18843170    -0.88310
C674        C  0.32179794  0.23548670  0.28363083     0.87720
Mg675      Mg  0.24761460  0.28996031  0.17262190     1.58150
O676        O  0.24363042  0.18751087  0.27593692    -0.88040
O677        O  0.26458278  0.18716303  0.19590266    -0.75370
C678        C  0.14818624  0.33109502  0.31023960     0.92770
O679        O  0.31228036  0.30343126  0.23463798    -0.75190
O680        O  0.16423364  0.34611110  0.28506161    -0.82690
Mg681      Mg  0.32688383  0.25059923  0.20918073     1.57960
C682        C  0.16763851  0.19123469  0.35269869     0.92690
O683        O  0.34645970  0.19966019  0.18210792    -0.80950
H684        H  0.21488153  0.15172349  0.25031642    -0.06300
C685        C  0.23626807  0.28297889  0.32279260     0.87630
O686        O  0.19480086  0.26543446  0.18813880    -0.75470
O687        O  0.31087511  0.22342705  0.25547838    -0.88230
O688        O  0.20022220  0.18378434  0.34924473    -0.81040
C689        C  0.30886170  0.14755978  0.33169627     0.92810
C690        C  0.35141062  0.16753496  0.19042950     0.92660
Mg691      Mg  0.17207607  0.24808765  0.28968182     1.57950
O692        O  0.15084879  0.29823537  0.31626578    -0.80960
O693        O  0.18772664  0.19560613  0.26407405    -0.75200
O694        O  0.31705267  0.15198106  0.29949723    -0.81040
O695        O  0.34504631  0.28195533  0.16221427    -0.82750
O696        O  0.18453107  0.34963551  0.20284886    -0.81070
C697        C  0.21551414  0.17698433  0.26337793     0.87100
O698        O  0.18841266  0.27629211  0.24436810    -0.88210
O699        O  0.22369924  0.25516233  0.31154217    -0.88320
O700        O  0.23598368  0.31108118  0.30477450    -0.75380
Mg701      Mg  0.29019515  0.17173236  0.24858648     1.57970
O702        O  0.28162821  0.16133644  0.34540778    -0.82750
H703        H  0.24978052  0.21447653  0.15251117    -0.06480
O704        O  0.25601796  0.31105351  0.22435030    -0.88020
H705        H  0.28529886  0.34734431  0.24864339    -0.06300
H706        H  0.15109146  0.25264935  0.21588500    -0.06480
C707        C  0.28442260  0.32190517  0.23594894     0.87070
C708        C  0.26291142  0.21519333  0.17770590     0.87660
C709        C  0.17678977  0.26480162  0.21624691     0.87700
H710        H  0.24908868  0.28303261  0.34815645    -0.06460
O711        O  0.30360594  0.23412947  0.31162592    -0.75480
Mg712      Mg  0.21065494  0.32761163  0.25272636     1.58000
H713        H  0.34711170  0.24841053  0.28423000    -0.06470
C714        C  0.33089480  0.30871759  0.14795192     0.92690
O715        O  0.21635445  0.33748194  0.15519510    -0.82710
C716        C  0.19094834  0.35337106  0.17020452     0.92750
O717        O  0.33798358  0.15391257  0.21782465    -0.82700
Mg718      Mg  0.25095484  0.20899997  0.32752043     1.58180
O719        O  0.29830936  0.31585378  0.15172480    -0.81030
O720        O  0.15366430  0.21659464  0.33605100    -0.82720
O721        O  0.77662470  0.74400863  0.68889521    -0.88310
C722        C  0.82221111  0.73560252  0.78478473     0.87720
Mg723      Mg  0.74950195  0.79027388  0.67235497     1.58150
O724        O  0.74406117  0.68813757  0.77437484    -0.88040
O725        O  0.76689810  0.68750435  0.69487636    -0.75370
C726        C  0.64584365  0.83126416  0.80703670     0.92770
O727        O  0.81195619  0.80426367  0.73571663    -0.75190
O728        O  0.66049197  0.84551073  0.78050963    -0.82690
Mg729      Mg  0.82812559  0.75159456  0.71046815     1.57960
C730        C  0.66633373  0.69005417  0.84821248     0.92690
O731        O  0.84899733  0.70097080  0.68397018    -0.80950
H732        H  0.71562393  0.65221648  0.74855766    -0.06300
C733        C  0.73458042  0.78394520  0.82134078     0.87630
O734        O  0.69632672  0.76526869  0.68624795    -0.75470
O735        O  0.81168742  0.72389395  0.75630659    -0.88230
O736        O  0.69888004  0.68259859  0.84479313    -0.81040
C737        C  0.80766379  0.64676009  0.83162153     0.92810
C738        C  0.85365107  0.66856265  0.69120872     0.92660
Mg739      Mg  0.67185781  0.74841967  0.78787968     1.57950
O740        O  0.65090199  0.79892779  0.81427504    -0.80960
O741        O  0.68802787  0.69577591  0.76256339    -0.75200
O742        O  0.81646053  0.65150401  0.79958426    -0.81040
O743        O  0.84689948  0.78279486  0.66349473    -0.82750
O744        O  0.68345740  0.84845847  0.69857569    -0.81070
C745        C  0.71604406  0.67744749  0.76168214     0.87100
O746        O  0.68836754  0.77607755  0.74223703    -0.88210
O747        O  0.72323570  0.75569832  0.80978688    -0.88320
O748        O  0.73311809  0.81220395  0.80351259    -0.75380
Mg749      Mg  0.79110778  0.67210538  0.74813229     1.57970
O750        O  0.78056585  0.66129498  0.84480832    -0.82750
H751        H  0.75329952  0.71537431  0.65145455    -0.06480
O752        O  0.75588810  0.81178281  0.72398682    -0.88020
H753        H  0.78433159  0.84784701  0.74959437    -0.06300
H754        H  0.65212352  0.75177102  0.71291299    -0.06480
C755        C  0.78392136  0.82256477  0.73656569     0.87070
C756        C  0.76547005  0.71579095  0.67713270     0.87660
C757        C  0.67763012  0.76428666  0.71390223     0.87700
H758        H  0.74691874  0.78442244  0.84693831    -0.06460
O759        O  0.80345316  0.73425439  0.81242297    -0.75480
Mg760      Mg  0.70885783  0.82786069  0.75026716     1.58000
H761        H  0.84763277  0.74827407  0.78595683    -0.06470
C762        C  0.83281344  0.80938368  0.64885476     0.92690
O763        O  0.71929571  0.83776228  0.65377965    -0.82710
C764        C  0.69205521  0.85247095  0.66633895     0.92750
O765        O  0.83943154  0.65435776  0.71796335    -0.82700
Mg766      Mg  0.75019547  0.70908885  0.82623138     1.58180
O767        O  0.80031965  0.81635966  0.65289331    -0.81030
O768        O  0.65281502  0.71740504  0.83460586    -0.82720
C769        C  0.84659193  0.06782494  0.12159676    -0.12230
C770        C  0.87334033  0.08290713  0.10113352     0.04770
C771        C  0.88096945  0.11912866  0.10495455    -0.07520
C772        C  0.86252633  0.13890586  0.13006563    -0.08270
C773        C  0.83596659  0.12377101  0.15063004    -0.02820
C774        C  0.82753353  0.08780087  0.14623653     0.04000
N775        N  0.80103376  0.07077741  0.16730943     0.66510
H776        H  0.84122759  0.03994935  0.11899477     0.15400
H777        H  0.86871381  0.16655083  0.13335000     0.15120
N778        N  0.90829990  0.13591992  0.08500220     0.74210
O779        O  0.78539507  0.04383651  0.15579791    -0.39240
O780        O  0.79556898  0.08026082  0.19865120    -0.39180
O781        O  0.90764291  0.13493291  0.05185634    -0.39890
O782        O  0.92897381  0.15714000  0.09999472    -0.39950
C783        C  0.11543980  0.89085463  0.11428269    -0.12230
C784        C  0.10293716  0.87554319  0.08323895     0.04770
C785        C  0.11205462  0.84036293  0.07493117    -0.07520
C786        C  0.13462162  0.82191073  0.09776331    -0.08270
C787        C  0.14844674  0.83783800  0.12806675    -0.02820
C788        C  0.13777487  0.87238450  0.13705954     0.04000
N789        N  0.14835238  0.88863564  0.16957673     0.66510
H790        H  0.10748966  0.91744460  0.12091645     0.15400
H791        H  0.14263151  0.79536041  0.09111799     0.15120
N792        N  0.09881791  0.82288397  0.04395706     0.74210
O793        O  0.15232561  0.92156832  0.17127055    -0.39240
O794        O  0.14906099  0.87094334  0.19764375    -0.39180
O795        O  0.09131453  0.83996119  0.01652361    -0.39890
O796        O  0.09659586  0.78974697  0.04319485    -0.39950
C797        C  0.10923518  0.09137373  0.85731397    -0.12230
C798        C  0.08228772  0.10557815  0.87833173     0.04770
C799        C  0.07826065  0.14266169  0.87958293    -0.07520
C800        C  0.09920112  0.16395088  0.85819147    -0.08270
C801        C  0.12585817  0.14987411  0.83699935    -0.02820
C802        C  0.13175280  0.11290824  0.83724522     0.04000
N803        N  0.16160457  0.09675846  0.82017614     0.66510
H804        H  0.11316940  0.06315012  0.85680689     0.15400
H805        H  0.09563013  0.19224100  0.85933706     0.15120
N806        N  0.05493568  0.15954207  0.90405264     0.74210
O807        O  0.17524926  0.06933620  0.83304845    -0.39240
O808        O  0.17297757  0.10784619  0.79112406    -0.39180
O809        O  0.05819825  0.15357315  0.93653585    -0.39890
O810        O  0.03670760  0.18553297  0.89427255    -0.39950
C811        C  0.11146633  0.90119541  0.86973895    -0.12230
C812        C  0.12650427  0.91783905  0.89899268     0.04770
C813        C  0.16280733  0.91341893  0.90582278    -0.07520
C814        C  0.18305323  0.89250025  0.88304012    -0.08270
C815        C  0.16806360  0.87564822  0.85373561    -0.02820
C816        C  0.13167475  0.88017535  0.84715099     0.04000
N817        N  0.11441234  0.86273265  0.81857574     0.66510
H818        H  0.08363969  0.90452951  0.86440128     0.15400
H819        H  0.21087523  0.88931803  0.88838717     0.15120
N820        N  0.17995636  0.93094128  0.93461078     0.74210
O821        O  0.08962146  0.84161102  0.82494488    -0.39240
O822        O  0.11829412  0.87417409  0.78768939    -0.39180
O823        O  0.16717519  0.92955420  0.96518033    -0.39890
O824        O  0.21046789  0.94339309  0.93055246    -0.39950
C825        C  0.85920982  0.11754477  0.91453089    -0.12230
C826        C  0.89563647  0.12358696  0.91599058     0.04770
C827        C  0.90981236  0.15179483  0.89637233    -0.07520
C828        C  0.88739668  0.17357608  0.87686121    -0.08270
C829        C  0.85085616  0.16774562  0.87549393    -0.02820
C830        C  0.83675302  0.13907265  0.89471418     0.04000
N831        N  0.79980486  0.13152347  0.89511742     0.66510
H832        H  0.84784652  0.09598060  0.92926771     0.15400
H833        H  0.89903426  0.19498382  0.86212698     0.15120
N834        N  0.94672323  0.15930716  0.89626041     0.74210
O835        O  0.78929144  0.10068596  0.88869429    -0.39240
O836        O  0.77868692  0.15334156  0.90861603    -0.39180
O837        O  0.96728666  0.13981221  0.87890986    -0.39890
O838        O  0.95722903  0.18926621  0.90596559    -0.39950
C839        C  0.88146679  0.89433575  0.11713382    -0.12230
C840        C  0.91707365  0.89732113  0.12621184     0.04770
C841        C  0.93061299  0.87714786  0.15435437    -0.07520
C842        C  0.90840669  0.85302298  0.17141896    -0.08270
C843        C  0.87324557  0.84866680  0.16109345    -0.02820
C844        C  0.85930020  0.87005748  0.13393518     0.04000
N845        N  0.82289075  0.86832953  0.12348732     0.66510
H846        H  0.87120669  0.90999741  0.09564729     0.15400
H847        H  0.91858659  0.83741140  0.19296859     0.15120
N848        N  0.96628927  0.88141932  0.16643833     0.74210
O849        O  0.80735193  0.89575152  0.11297266    -0.39240
O850        O  0.80740006  0.83914651  0.12052375    -0.39180
O851        O  0.98106405  0.91112893  0.16516363    -0.39890
O852        O  0.98178466  0.85650288  0.18200229    -0.39950
C853        C  0.59997645  0.15879214  0.08524156    -0.12230
C854        C  0.60444681  0.12231770  0.08220112     0.04770
C855        C  0.63056152  0.10532090  0.10242989    -0.07520
C856        C  0.65272766  0.12552931  0.12374881    -0.08270
C857        C  0.64955019  0.16237089  0.12593846    -0.02820
C858        C  0.62182837  0.17898723  0.10720038     0.04000
N859        N  0.61500658  0.21596052  0.11029896     0.66510
H860        H  0.57918571  0.17165084  0.07056360     0.15400
H861        H  0.67296144  0.11201620  0.13857598     0.15120
N862        N  0.63420116  0.06761552  0.10297102     0.74210
O863        O  0.61137375  0.23431864  0.08290489    -0.39240
O864        O  0.60496415  0.22838649  0.13940917    -0.39180
O865        O  0.63485207  0.05017168  0.07475466    -0.39890
O866        O  0.64114588  0.05211973  0.13148730    -0.39950
C867        C  0.38795365  0.11844634  0.11153131    -0.12230
C868        C  0.41893741  0.10437320  0.12570570     0.04770
C869        C  0.42749483  0.11064911  0.16135079    -0.07520
C870        C  0.40428129  0.13078179  0.18194629    -0.08270
C871        C  0.37353147  0.14531250  0.16765415    -0.02820
C872        C  0.36492706  0.13883988  0.13203315     0.04000
N873        N  0.33264676  0.15148448  0.11662725     0.66510
H874        H  0.38141952  0.11291783  0.08434923     0.15400
H875        H  0.41066582  0.13603194  0.20921172     0.15120
N876        N  0.45915719  0.09688101  0.17713247     0.74210
O877        O  0.33055468  0.15614851  0.08383392    -0.39240
O878        O  0.30498417  0.15385376  0.13483369    -0.39180
O879        O  0.48668508  0.09233691  0.15912344    -0.39890
O880        O  0.46066312  0.09210213  0.20993901    -0.39950
C881        C  0.35042605  0.93364479  0.12634882    -0.12230
C882        C  0.37617954  0.91809151  0.10492648     0.04770
C883        C  0.38103781  0.88118320  0.10596615    -0.07520
C884        C  0.36022269  0.86099930  0.12878264    -0.08270
C885        C  0.33474917  0.87659940  0.15044283    -0.02820
C886        C  0.32919894  0.91340142  0.14883230     0.04000
N887        N  0.30326916  0.93086093  0.17034416     0.66510
H888        H  0.34656300  0.96186951  0.12517288     0.15400
H889        H  0.36469620  0.83288268  0.13053038     0.15120
N890        N  0.40806658  0.86396933  0.08575704     0.74210
O891        O  0.30759535  0.96258383  0.17920892    -0.39240
O892        O  0.27424498  0.91630127  0.17714909    -0.39180
O893        O  0.43826324  0.87750316  0.08315491    -0.39890
O894        O  0.40341949  0.83297549  0.07473838    -0.39950
C895        C  0.58462671  0.86190718  0.88105113    -0.12230
C896        C  0.58119620  0.89790484  0.87352316     0.04770
C897        C  0.59944947  0.91177302  0.84427030    -0.07520
C898        C  0.61940013  0.88934561  0.82280347    -0.08270
C899        C  0.62273207  0.85318505  0.83010790    -0.02820
C900        C  0.60511160  0.83953722  0.86002331     0.04000
N901        N  0.60740800  0.80317257  0.86966631     0.66510
H902        H  0.57116264  0.85085736  0.90359022     0.15400
H903        H  0.63292496  0.90069666  0.80047014     0.15120
N904        N  0.59777166  0.94836379  0.83546633     0.74210
O905        O  0.61712558  0.79494566  0.90031070    -0.39240
O906        O  0.59301629  0.78016585  0.85054744    -0.39180
O907        O  0.61467757  0.97031955  0.85374602    -0.39890
O908        O  0.58686357  0.95740230  0.80546834    -0.39950
C909        C  0.61105493  0.09466971  0.86414293    -0.12230
C910        C  0.62473547  0.08121786  0.89560440     0.04770
C911        C  0.65912862  0.09064392  0.90615831    -0.07520
C912        C  0.67890528  0.11325428  0.88471760    -0.08270
C913        C  0.66528324  0.12686133  0.85312660    -0.02820
C914        C  0.63040523  0.11809253  0.84327778     0.04000
N915        N  0.61337820  0.13420659  0.81363981     0.66510
H916        H  0.58428156  0.08830537  0.85667891     0.15400
H917        H  0.70561147  0.11953155  0.89241585     0.15120
N918        N  0.67487887  0.07669166  0.93764468     0.74210
O919        O  0.59289454  0.11633552  0.79457457    -0.39240
O920        O  0.61354072  0.16727037  0.81044937    -0.39180
O921        O  0.66927455  0.04527735  0.94680246    -0.39890
O922        O  0.69768257  0.09435639  0.95410214    -0.39950
C923        C  0.40217124  0.87337027  0.88293987    -0.12230
C924        C  0.39557788  0.87424033  0.91924249     0.04770
C925        C  0.36763739  0.85399339  0.93290500    -0.07520
C926        C  0.34750051  0.83296245  0.91037891    -0.08270
C927        C  0.35425211  0.83187916  0.87417624    -0.02820
C928        C  0.38166541  0.85287298  0.85991991     0.04000
N929        N  0.38820018  0.85536369  0.82255590     0.66510
H930        H  0.42324309  0.88932843  0.87233489     0.15400
H931        H  0.32644498  0.81716345  0.92130457     0.15120
N932        N  0.36008639  0.85350282  0.96972553     0.74210
O933        O  0.40347749  0.88209713  0.81014069    -0.39240
O934        O  0.38016054  0.83074249  0.80182635    -0.39180
O935        O  0.34056525  0.87697867  0.98282624    -0.39890
O936        O  0.36737591  0.82648775  0.98755740    -0.39950
C937        C  0.11661722  0.08073215  0.63970997    -0.12230
C938        C  0.12442671  0.08163693  0.60363049     0.04770
C939        C  0.15199859  0.10377287  0.59186602    -0.07520
C940        C  0.17142914  0.12338683  0.61649871    -0.08270
C941        C  0.16326260  0.12243829  0.65252220    -0.02820
C942        C  0.13558502  0.10055049  0.66412120     0.04000
N943        N  0.12727890  0.09685928  0.70072455     0.66510
H944        H  0.09566403  0.06400569  0.64933408     0.15400
H945        H  0.19223175  0.14049842  0.60721810     0.15120
N946        N  0.16075724  0.10684854  0.55535687     0.74210
O947        O  0.09557517  0.09565542  0.71056182    -0.39240
O948        O  0.15126162  0.08923336  0.72235070    -0.39180
O949        O  0.13957906  0.12196667  0.53473691    -0.39890
O950        O  0.19221287  0.10235816  0.54568137    -0.39950
C951        C  0.09000366  0.15581671  0.40560524    -0.12230
C952        C  0.10321499  0.12326966  0.41670914     0.04770
C953        C  0.13765327  0.11311540  0.40689973    -0.07520
C954        C  0.15830771  0.13629597  0.38703246    -0.08270
C955        C  0.14535264  0.16918586  0.37609072    -0.02820
C956        C  0.11074225  0.17913778  0.38604031     0.04000
N957        N  0.09661704  0.21321078  0.37795811     0.66510
H958        H  0.06382555  0.16388475  0.41357496     0.15400
H959        H  0.18435130  0.12790065  0.37903087     0.15120
N960        N  0.15145919  0.07887630  0.41535378     0.74210
O961        O  0.06562278  0.21595500  0.36633790    -0.39240
O962        O  0.11246192  0.24051005  0.38827153    -0.39180
O963        O  0.13233880  0.05190194  0.41229499    -0.39890
O964        O  0.18391081  0.07496403  0.42130225    -0.39950
C965        C  0.86808040  0.88813369  0.59759609    -0.12230
C966        C  0.89896763  0.87408536  0.58321491     0.04770
C967        C  0.90846182  0.83902261  0.59106547    -0.07520
C968        C  0.88602825  0.81848090  0.61188266    -0.08270
C969        C  0.85482794  0.83235820  0.62618394    -0.02820
C970        C  0.84626282  0.86801333  0.61935206     0.04000
N971        N  0.81657820  0.88486136  0.63534444     0.66510
H972        H  0.86101728  0.91524189  0.59220209     0.15400
H973        H  0.89330514  0.79142020  0.61712683     0.15120
N974        N  0.94003625  0.82342370  0.57741590     0.74210
O975        O  0.82119833  0.91220589  0.65361027    -0.39240
O976        O  0.78601650  0.87768627  0.62469720    -0.39180
O977        O  0.96959954  0.83595048  0.58581554    -0.39890
O978        O  0.93877483  0.79328348  0.56351791    -0.39950
C979        C  0.93212124  0.13732245  0.36456773    -0.12230
C980        C  0.91786900  0.10517095  0.37614592     0.04770
C981        C  0.88302738  0.09632362  0.36609186    -0.07520
C982        C  0.86390139  0.11948385  0.34458938    -0.08270
C983        C  0.87805152  0.15181160  0.33406493    -0.02820
C984        C  0.91268907  0.16085328  0.34382744     0.04000
N985        N  0.92855553  0.19354333  0.33297279     0.66510
H986        H  0.95886401  0.14420580  0.37155891     0.15400
H987        H  0.83695862  0.11315271  0.33771707     0.15120
N988        N  0.86572531  0.06541637  0.37915802     0.74210
O989        O  0.95322645  0.20687200  0.35076352    -0.39240
O990        O  0.92020844  0.20770545  0.30414366    -0.39180
O991        O  0.86379911  0.06021197  0.41187421    -0.39890
O992        O  0.84664779  0.04734809  0.35886032    -0.39950
C993        C  0.06828274  0.86570697  0.64019318    -0.12230
C994        C  0.08287685  0.89610607  0.62503785     0.04770
C995        C  0.11855710  0.90418852  0.63199974    -0.07520
C996        C  0.13847042  0.88199098  0.65365441    -0.08270
C997        C  0.12386533  0.85160365  0.66855153    -0.02820
C998        C  0.08827085  0.84328153  0.66166099     0.04000
N999        N  0.07141242  0.81332867  0.67731372     0.66510
H1000       H  0.04097526  0.85918534  0.63527893     0.15400
H1001       H  0.16577487  0.88846763  0.65873950     0.15120
N1002       N  0.13547495  0.93401195  0.61648046     0.74210
O1003       O  0.04076696  0.81639966  0.68976171    -0.39240
O1004       O  0.08404443  0.78291105  0.67308050    -0.39180
O1005       O  0.13011892  0.96427321  0.62908409    -0.39890
O1006       O  0.16117262  0.92931108  0.59598431    -0.39950
C1007       C  0.88978134  0.91135960  0.36313348    -0.12230
C1008       C  0.87511329  0.91895693  0.39605477     0.04770
C1009       C  0.84246347  0.90371791  0.40537563    -0.07520
C1010       C  0.82515438  0.88189556  0.38089974    -0.08270
C1011       C  0.83982257  0.87448496  0.34765866    -0.02820
C1012       C  0.87318371  0.88887983  0.33935891     0.04000
N1013       N  0.89122093  0.88061167  0.30732503     0.66510
H1014       H  0.91527293  0.92208460  0.35617740     0.15400
H1015       H  0.79978790  0.87094465  0.38781169     0.15120
N1016       N  0.82595026  0.91084731  0.43868744     0.74210
O1017       O  0.90059611  0.90515883  0.28708014    -0.39240
O1018       O  0.90480432  0.85051399  0.30356331    -0.39180
O1019       O  0.82734124  0.94120827  0.45208873    -0.39890
O1020       O  0.80655943  0.88793688  0.45286102    -0.39950
C1021       C  0.13583981  0.61982316  0.15562115    -0.12230
C1022       C  0.12207738  0.65268557  0.16516108     0.04770
C1023       C  0.08690393  0.66109451  0.15659502    -0.07520
C1024       C  0.06672301  0.63653619  0.13784829    -0.08270
C1025       C  0.08066552  0.60394791  0.12699720    -0.02820
C1026       C  0.11561478  0.59529153  0.13685577     0.04000
N1027       N  0.13146877  0.56238048  0.12740591     0.66510
H1028       H  0.16274063  0.61329852  0.16253130     0.15400
H1029       H  0.03995095  0.64345886  0.13094326     0.15120
N1030       N  0.07097036  0.69395413  0.16689189     0.74210
O1031       O  0.16056060  0.56217631  0.11139243    -0.39240
O1032       O  0.12078045  0.53438730  0.14165515    -0.39180
O1033       O  0.08826958  0.72226041  0.16621528    -0.39890
O1034       O  0.03844540  0.69529654  0.17353419    -0.39950
C1035       C  0.13357199  0.42901202  0.13825046    -0.12230
C1036       C  0.12532475  0.41799534  0.10388454     0.04770
C1037       C  0.13858089  0.38516624  0.09204141    -0.07520
C1038       C  0.15960367  0.36476975  0.11436488    -0.08270
C1039       C  0.16770717  0.37587602  0.14858408    -0.02820
C1040       C  0.15411098  0.40826720  0.16075063     0.04000
N1041       N  0.16166586  0.42117506  0.19533474     0.66510
H1042       H  0.12372800  0.45390449  0.14807414     0.15400
H1043       H  0.16961644  0.33981101  0.10481778     0.15120
N1044       N  0.13077835  0.37166678  0.05776538     0.74210
O1045       O  0.17495447  0.45138070  0.19893351    -0.39240
O1046       O  0.14779695  0.40650545  0.22164892    -0.39180
O1047       O  0.14613282  0.38445389  0.03128877    -0.39890
O1048       O  0.11503412  0.34259000  0.05483484    -0.39950
C1049       C  0.09510895  0.34274120  0.90769814    -0.12230
C1050       C  0.10463866  0.37658972  0.91887685     0.04770
C1051       C  0.13657703  0.39117619  0.90707651    -0.07520
C1052       C  0.15894836  0.37138176  0.88575490    -0.08270
C1053       C  0.15037602  0.33694953  0.87523081    -0.02820
C1054       C  0.11737912  0.32282420  0.88571530     0.04000
N1055       N  0.10536101  0.28919231  0.87348056     0.66510
H1056       H  0.07005439  0.33187516  0.91583716     0.15400
H1057       H  0.18347687  0.38333410  0.87755997     0.15120
N1058       N  0.14589638  0.42684491  0.91486769     0.74210
O1059       O  0.09094230  0.26813277  0.89468070    -0.39240
O1060       O  0.10277372  0.28346990  0.84088917    -0.39180
O1061       O  0.15796706  0.43457475  0.94478436    -0.39890
O1062       O  0.14890342  0.44868512  0.89008175    -0.39950
C1063       C  0.87277966  0.67888108  0.10538366    -0.12230
C1064       C  0.84722932  0.66020756  0.12463349     0.04770
C1065       C  0.84731284  0.62297913  0.12278951    -0.07520
C1066       C  0.87170554  0.60567003  0.10147871    -0.08270
C1067       C  0.89663213  0.62428431  0.08193089    -0.02820
C1068       C  0.89774943  0.66146054  0.08415390     0.04000
N1069       N  0.92297415  0.68197709  0.06463569     0.66510
H1070       H  0.87338098  0.70732249  0.10691064     0.15400
H1071       H  0.87099012  0.57718315  0.09996934     0.15120
N1072       N  0.82320703  0.60204910  0.14265405     0.74210
O1073       O  0.91622338  0.71353417  0.05674793    -0.39240
O1074       O  0.95318885  0.66996215  0.05785999    -0.39180
O1075       O  0.79269311  0.59650036  0.13081344    -0.39890
O1076       O  0.83448592  0.58367061  0.16786986    -0.39950
C1077       C  0.83921033  0.57881257  0.89815388    -0.12230
C1078       C  0.87579837  0.58231298  0.89529726     0.04770
C1079       C  0.89006492  0.60756902  0.87193663    -0.07520
C1080       C  0.86698996  0.62806851  0.85151537    -0.08270
C1081       C  0.83031903  0.62453265  0.85426673    -0.02820
C1082       C  0.81634322  0.59979290  0.87819740     0.04000
N1083       N  0.77917930  0.59450276  0.88156664     0.66510
H1084       H  0.82829259  0.55962468  0.91616302     0.15400
H1085       H  0.87774755  0.64721806  0.83338476     0.15120
N1086       N  0.92743276  0.61367180  0.86923160     0.74210
O1087       O  0.76653330  0.56418330  0.87680845    -0.39240
O1088       O  0.76050605  0.61766080  0.89635655    -0.39180
O1089       O  0.94924249  0.58898457  0.87346182    -0.39890
O1090       O  0.93876458  0.64357030  0.86028420    -0.39950
C1091       C  0.90649440  0.34123812  0.84237814    -0.12230
C1092       C  0.87321860  0.35381701  0.83274846     0.04770
C1093       C  0.86251005  0.38770899  0.84381582    -0.07520
C1094       C  0.88583335  0.40845644  0.86352866    -0.08270
C1095       C  0.91940646  0.39610459  0.87305055    -0.02820
C1096       C  0.92994809  0.36209101  0.86174668     0.04000
N1097       N  0.96472375  0.34879742  0.86819589     0.66510
H1098       H  0.91495182  0.31551729  0.83338113     0.15400
H1099       H  0.87706240  0.43402164  0.87260810     0.15120
N1100       N  0.82763996  0.40079227  0.83682018     0.74210
O1101       O  0.96892005  0.31728357  0.87778890    -0.39240
O1102       O  0.99119146  0.36636304  0.85855778    -0.39180
O1103       O  0.80136310  0.38064462  0.83926047    -0.39890
O1104       O  0.82253458  0.43336035  0.83272512    -0.39950
C1105       C  0.32121038  0.09304216  0.36474216    -0.12230
C1106       C  0.33211583  0.12667367  0.35438938     0.04770
C1107       C  0.36417347  0.14042791  0.36717115    -0.07520
C1108       C  0.38418531  0.12027694  0.39062435    -0.08270
C1109       C  0.37300499  0.08694782  0.40177459    -0.02820
C1110       C  0.34120892  0.07283716  0.38838832     0.04000
N1111       N  0.32797516  0.03913398  0.39947405     0.66510
H1112       H  0.29640942  0.08289546  0.35502536     0.15400
H1113       H  0.40859919  0.13096002  0.40075108     0.15120
N1114       N  0.37637708  0.17495496  0.35758397     0.74210
O1115       O  0.30898752  0.02118334  0.37897808    -0.39240
O1116       O  0.33111620  0.02934337  0.43101618    -0.39180
O1117       O  0.35505596  0.20029532  0.35514448    -0.39890
O1118       O  0.40896101  0.18121916  0.35602610    -0.39950
C1119       C  0.60251369  0.84085713  0.41736464    -0.12230
C1120       C  0.60053882  0.87740828  0.41322196     0.04770
C1121       C  0.62392880  0.89447294  0.39001162    -0.07520
C1122       C  0.64868836  0.87448200  0.37138038    -0.08270
C1123       C  0.65068196  0.83773485  0.37497505    -0.02820
C1124       C  0.62681759  0.82074621  0.39806346     0.04000
N1125       N  0.62653164  0.78330316  0.40219220     0.66510
H1126       H  0.58425376  0.82771385  0.43484419     0.15400
H1127       H  0.66659468  0.88793964  0.35380202     0.15120
N1128       N  0.62332006  0.93202570  0.38538891     0.74210
O1129       O  0.63076645  0.77022059  0.43237590    -0.39240
O1130       O  0.61381373  0.76435569  0.37808206    -0.39180
O1131       O  0.61955451  0.95210313  0.41154722    -0.39890
O1132       O  0.63098350  0.94529346  0.35595746    -0.39950
C1133       C  0.64299829  0.12426094  0.64537949    -0.12230
C1134       C  0.62449870  0.14766589  0.66689242     0.04770
C1135       C  0.58727145  0.14717822  0.66702032    -0.07520
C1136       C  0.56965958  0.12238872  0.64580693    -0.08270
C1137       C  0.58824232  0.09834637  0.62457448    -0.02820
C1138       C  0.62549824  0.09980344  0.62432675     0.04000
N1139       N  0.64621203  0.07704585  0.60260671     0.66510
H1140       H  0.67153252  0.12466420  0.64527481     0.15400
H1141       H  0.54117255  0.12180027  0.64599583     0.15120
N1142       N  0.56701124  0.17064378  0.68890809     0.74210
O1143       O  0.66359770  0.08990485  0.57745578    -0.39240
O1144       O  0.65321852  0.04632965  0.61308435    -0.39180
O1145       O  0.57802792  0.20114722  0.69598233    -0.39890
O1146       O  0.53659067  0.16195442  0.69900316    -0.39950
C1147       C  0.63566195  0.88437388  0.65468964    -0.12230
C1148       C  0.66922709  0.87404309  0.64272005     0.04770
C1149       C  0.67953829  0.88393127  0.60821191    -0.07520
C1150       C  0.65662467  0.90354712  0.58723742    -0.08270
C1151       C  0.62328510  0.91329840  0.59908090    -0.02820
C1152       C  0.61233472  0.90367566  0.63331825     0.04000
N1153       N  0.57755924  0.91165192  0.64634867     0.66510
H1154       H  0.62722173  0.87693014  0.68083084     0.15400
H1155       H  0.66469094  0.91054933  0.56080669     0.15120
N1156       N  0.71275754  0.87414931  0.59334497     0.74210
O1157       O  0.56376282  0.89255508  0.66972620    -0.39240
O1158       O  0.56131143  0.93885471  0.63644486    -0.39180
O1159       O  0.71794455  0.84250353  0.58467158    -0.39890
O1160       O  0.73174997  0.89770952  0.57971986    -0.39950
C1161       C  0.36537574  0.13516072  0.64058360    -0.12230
C1162       C  0.34987995  0.16469641  0.62489818     0.04770
C1163       C  0.35897490  0.17367559  0.58994542    -0.07520
C1164       C  0.38341049  0.15260720  0.57172292    -0.08270
C1165       C  0.39937919  0.12341587  0.58777239    -0.02820
C1166       C  0.38977176  0.11427769  0.62251963     0.04000
N1167       N  0.40308097  0.08305239  0.63926502     0.66510
H1168       H  0.35776211  0.12782152  0.66704396     0.15400
H1169       H  0.39064744  0.15955010  0.54506853     0.15120
N1170       N  0.34296722  0.20291769  0.57205847     0.74210
O1171       O  0.40887512  0.08293845  0.67194327    -0.39240
O1172       O  0.40417486  0.05430567  0.62264133    -0.39180
O1173       O  0.34058441  0.23253092  0.58687380    -0.39890
O1174       O  0.33582598  0.20057403  0.53973125    -0.39950
C1175       C  0.37365333  0.88377249  0.32613222    -0.12230
C1176       C  0.37800796  0.84807037  0.33461689     0.04770
C1177       C  0.40125485  0.83869899  0.36216878    -0.07520
C1178       C  0.41838273  0.86530907  0.38120785    -0.08270
C1179       C  0.41286153  0.90101945  0.37364950    -0.02820
C1180       C  0.39032178  0.91031518  0.34558811     0.04000
N1181       N  0.38450975  0.94631530  0.33591173     0.66510
H1182       H  0.35588057  0.89126848  0.30514922     0.15400
H1183       H  0.43610465  0.85806261  0.40232065     0.15120
N1184       N  0.40842428  0.80253054  0.37068332     0.74210
O1185       O  0.38834781  0.95548391  0.30426477    -0.39240
O1186       O  0.36833189  0.96660438  0.35663448    -0.39180
O1187       O  0.41359027  0.78030939  0.34653502    -0.39890
O1188       O  0.41407056  0.79365948  0.40215954    -0.39950
C1189       C  0.43316823  0.62043038  0.84621876    -0.12230
C1190       C  0.41835291  0.60430052  0.87585005     0.04770
C1191       C  0.38225899  0.60935384  0.88342875    -0.07520
C1192       C  0.36184099  0.62993202  0.86055438    -0.08270
C1193       C  0.37656836  0.64585848  0.83078932    -0.02820
C1194       C  0.41280120  0.64107464  0.82317509     0.04000
N1195       N  0.42946439  0.65664804  0.79273600     0.66510
H1196       H  0.46083138  0.61621921  0.84075283     0.15400
H1197       H  0.33425063  0.63425305  0.86637537     0.15120
N1198       N  0.36626623  0.59518782  0.91470272     0.74210
O1199       O  0.46256232  0.65632749  0.78980946    -0.39240
O1200       O  0.41158267  0.66948364  0.76791267    -0.39180
O1201       O  0.38338499  0.59355725  0.94308154    -0.39890
O1202       O  0.33371143  0.58861537  0.91527780    -0.39950
C1203       C  0.40816551  0.36175951  0.11328588    -0.12230
C1204       C  0.39479491  0.37411252  0.08108238     0.04770
C1205       C  0.35980105  0.36515622  0.07162176    -0.07520
C1206       C  0.33928665  0.34485704  0.09450097    -0.08270
C1207       C  0.35291850  0.33223791  0.12628049    -0.02820
C1208       C  0.38762331  0.34134463  0.13616873     0.04000
N1209       N  0.40177882  0.33177736  0.16993820     0.66510
H1210       H  0.43446990  0.36908129  0.12141605     0.15400
H1211       H  0.31281460  0.33770401  0.08669145     0.15120
N1212       N  0.34488806  0.37524405  0.03850135     0.74210
O1213       O  0.43431395  0.32595580  0.17334499    -0.39240
O1214       O  0.38291691  0.33396726  0.19717937    -0.39180
O1215       O  0.35890649  0.36477585  0.01027607    -0.39890
O1216       O  0.31465476  0.38899570  0.03748617    -0.39950
C1217       C  0.65460801  0.63520208  0.12201598    -0.12230
C1218       C  0.66207825  0.62232834  0.15560705     0.04770
C1219       C  0.65186575  0.58779550  0.16477204    -0.07520
C1220       C  0.63367910  0.56736536  0.13995655    -0.08270
C1221       C  0.62522192  0.58039245  0.10633610    -0.02820
C1222       C  0.63654763  0.61471893  0.09730906     0.04000
N1223       N  0.63092027  0.62898440  0.06303752     0.66510
H1224       H  0.66307489  0.66146736  0.11484509     0.15400
H1225       H  0.62555397  0.54110235  0.14736580     0.15120
N1226       N  0.66028777  0.57259252  0.19844952     0.74210
O1227       O  0.61814039  0.65946957  0.05968246    -0.39240
O1228       O  0.64623708  0.61490017  0.03724120    -0.39180
O1229       O  0.65977747  0.59094989  0.22609351    -0.39890
O1230       O  0.66532329  0.53985945  0.20108698    -0.39950
C1231       C  0.63417621  0.35808374  0.12866321    -0.12230
C1232       C  0.62540266  0.35034112  0.16367448     0.04770
C1233       C  0.59548575  0.36660905  0.17878761    -0.07520
C1234       C  0.57408309  0.38836641  0.15794611    -0.08270
C1235       C  0.58258490  0.39533259  0.12278879    -0.02820
C1236       C  0.61338394  0.38053340  0.10804341     0.04000
N1237       N  0.62372645  0.38734537  0.07226349     0.66510
H1238       H  0.65725167  0.34601469  0.11702131     0.15400
H1239       H  0.55074601  0.40016102  0.16935608     0.15120
N1240       N  0.58573231  0.36059765  0.21467204     0.74210
O1241       O  0.65586630  0.38690450  0.06385013    -0.39240
O1242       O  0.60095023  0.39002242  0.04829336    -0.39180
O1243       O  0.60510961  0.37208047  0.23904786    -0.39890
O1244       O  0.55469865  0.35124658  0.22184148    -0.39950
C1245       C  0.59368581  0.62979298  0.88230345    -0.12230
C1246       C  0.60495679  0.62446764  0.91714305     0.04770
C1247       C  0.63704592  0.63992932  0.92786395    -0.07520
C1248       C  0.65579429  0.66134911  0.90470168    -0.08270
C1249       C  0.64426525  0.66715187  0.87031584    -0.02820
C1250       C  0.61316999  0.65021511  0.85828235     0.04000
N1251       N  0.60196991  0.65105787  0.82194157     0.66510
H1252       H  0.56966978  0.61730973  0.87343099     0.15400
H1253       H  0.68003884  0.67340904  0.91367675     0.15120
N1254       N  0.65152505  0.63414641  0.96197360     0.74210
O1255       O  0.58263777  0.62684209  0.80997764    -0.39240
O1256       O  0.61066381  0.67570377  0.80157160    -0.39180
O1257       O  0.66676471  0.60527349  0.96810433    -0.39890
O1258       O  0.65826227  0.66036803  0.98120749    -0.39950
C1259       C  0.34019883  0.41658565  0.89938422    -0.12230
C1260       C  0.37698192  0.41723704  0.89702123     0.04770
C1261       C  0.39404749  0.39678192  0.87116240    -0.07520
C1262       C  0.37383545  0.37723942  0.84736901    -0.08270
C1263       C  0.33683530  0.37697767  0.84882160    -0.02820
C1264       C  0.31983587  0.39708890  0.87537256     0.04000
N1265       N  0.28220879  0.39953119  0.87747627     0.66510
H1266       H  0.32716361  0.43265428  0.91901262     0.15400
H1267       H  0.38741113  0.36134752  0.82799068     0.15120
N1268       N  0.43182277  0.39471929  0.86930712     0.74210
O1269       O  0.26717586  0.39788532  0.90702092    -0.39240
O1270       O  0.26481774  0.40983328  0.85114749    -0.39180
O1271       O  0.44986016  0.39300409  0.89710278    -0.39890
O1272       O  0.44687916  0.38974827  0.84013435    -0.39950
C1273       C  0.11851909  0.39687573  0.37886846    -0.12230
C1274       C  0.08203545  0.39697775  0.37335450     0.04770
C1275       C  0.06732577  0.37494518  0.34721760    -0.07520
C1276       C  0.08960462  0.35280487  0.32773929    -0.08270
C1277       C  0.12600037  0.35261443  0.33343337    -0.02820
C1278       C  0.14076845  0.37452782  0.35959700     0.04000
N1279       N  0.17782313  0.37372782  0.36763300     0.66510
H1280       H  0.12953135  0.41332275  0.39937927     0.15400
H1281       H  0.07865760  0.33638489  0.30717302     0.15120
N1282       N  0.03033469  0.37582259  0.33907123     0.74210
O1283       O  0.19253482  0.40027482  0.38111535    -0.39240
O1284       O  0.19498423  0.34536126  0.36542101    -0.39180
O1285       O  0.01366321  0.40457676  0.33947951    -0.39890
O1286       O  0.01524242  0.34870264  0.32726389    -0.39950
C1287       C  0.89659779  0.61979274  0.68355662    -0.12230
C1288       C  0.87638314  0.64666118  0.66819828     0.04770
C1289       C  0.87709539  0.65075024  0.63124646    -0.07520
C1290       C  0.89794120  0.62819642  0.61079686    -0.08270
C1291       C  0.91815301  0.60146642  0.62619973    -0.02820
C1292       C  0.91751876  0.59708220  0.66315028     0.04000
N1293       N  0.93866231  0.57092884  0.68063183     0.66510
H1294       H  0.89606184  0.61641604  0.71182901     0.15400
H1295       H  0.89835550  0.63158078  0.58250449     0.15120
N1296       N  0.85569331  0.67642079  0.61381150     0.74210
O1297       O  0.95052988  0.57687764  0.71105942    -0.39240
O1298       O  0.94237379  0.54057095  0.66771554    -0.39180
O1299       O  0.86401102  0.70851754  0.61534006    -0.39890
O1300       O  0.83371332  0.66652456  0.59099042    -0.39950
C1301       C  0.10995279  0.67014063  0.62753556    -0.12230
C1302       C  0.14678898  0.66689058  0.62554447     0.04770
C1303       C  0.16122811  0.64249514  0.60132709    -0.07520
C1304       C  0.13886053  0.62334762  0.57918069    -0.08270
C1305       C  0.10206060  0.62678157  0.58102362    -0.02820
C1306       C  0.08752559  0.65058801  0.60575684     0.04000
N1307       N  0.05027878  0.65615114  0.60867118     0.66510
H1308       H  0.09823591  0.68851440  0.64592193     0.15400
H1309       H  0.15056701  0.60471051  0.56104676     0.15120
N1310       N  0.19834775  0.63626165  0.59891931     0.74210
O1311       O  0.03605232  0.65743990  0.63863813    -0.39240
O1312       O  0.03283914  0.66580121  0.58213235    -0.39180
O1313       O  0.21383295  0.62026284  0.62353807    -0.39890
O1314       O  0.21352276  0.63902855  0.56954063    -0.39950
C1315       C  0.86907407  0.38287387  0.59421911    -0.12230
C1316       C  0.87365334  0.41847850  0.60305251     0.04770
C1317       C  0.85750352  0.43171946  0.63396347    -0.07520
C1318       C  0.83822708  0.40888066  0.65556775    -0.08270
C1319       C  0.83353815  0.37348849  0.64649657    -0.02820
C1320       C  0.84951895  0.36008105  0.61568229     0.04000
N1321       N  0.84757696  0.32330719  0.60665819     0.66510
H1322       H  0.88200618  0.37235432  0.57110238     0.15400
H1323       H  0.82538895  0.41920376  0.67884094     0.15120
N1324       N  0.85881376  0.46842858  0.64293016     0.74210
O1325       O  0.84972341  0.31374963  0.57493563    -0.39240
O1326       O  0.84823970  0.30010884  0.63038058    -0.39180
O1327       O  0.85149271  0.49138696  0.62009680    -0.39890
O1328       O  0.86187803  0.47770288  0.67465459    -0.39950
C1329       C  0.11912428  0.61754955  0.39528625    -0.12230
C1330       C  0.12552565  0.58119984  0.39564115     0.04770
C1331       C  0.15252708  0.56724016  0.37421645    -0.07520
C1332       C  0.17204575  0.58976710  0.35254294    -0.08270
C1333       C  0.16447522  0.62580780  0.35095332    -0.02820
C1334       C  0.13811281  0.64014902  0.37305211     0.04000
N1335       N  0.13053895  0.67732120  0.37357819     0.66510
H1336       H  0.09878340  0.62829516  0.41213995     0.15400
H1337       H  0.19233302  0.57881065  0.33574788     0.15120
N1338       N  0.16097823  0.53049623  0.37458392     0.74210
O1339       O  0.10055804  0.68818853  0.38294798    -0.39240
O1340       O  0.15463519  0.69953484  0.36836223    -0.39180
O1341       O  0.13983595  0.50858738  0.36138085    -0.39890
O1342       O  0.19208051  0.52091362  0.38121333    -0.39950
C1343       C  0.88723191  0.34196428  0.42712378    -0.12230
C1344       C  0.89823742  0.37535882  0.41607886     0.04770
C1345       C  0.88527367  0.38939728  0.38422999    -0.07520
C1346       C  0.86054968  0.37007791  0.36488998    -0.08270
C1347       C  0.84923058  0.33675376  0.37593379    -0.02820
C1348       C  0.86292130  0.32229778  0.40738380     0.04000
N1349       N  0.85124635  0.28883849  0.42062066     0.66510
H1350       H  0.89680462  0.33166301  0.45189990     0.15400
H1351       H  0.85053083  0.38086776  0.34049666     0.15120
N1352       N  0.89618645  0.42333402  0.37149785     0.74210
O1353       O  0.87206584  0.26966087  0.43800142    -0.39240
O1354       O  0.81916991  0.28039678  0.41899404    -0.39180
O1355       O  0.92805058  0.43245879  0.37319384    -0.39890
O1356       O  0.87500478  0.44222814  0.35424268    -0.39950
C1357       C  0.40298083  0.62667458  0.38245412    -0.12230
C1358       C  0.39750605  0.62677611  0.41897609     0.04770
C1359       C  0.36915581  0.64644299  0.43309422    -0.07520
C1360       C  0.34587547  0.66362558  0.41018524    -0.08270
C1361       C  0.35058742  0.66229523  0.37372329    -0.02820
C1362       C  0.37973402  0.64398382  0.35946533     0.04000
N1363       N  0.38599106  0.64218951  0.32210209     0.66510
H1364       H  0.42459091  0.61153355  0.37162448     0.15400
H1365       H  0.32403333  0.67854492  0.42088274     0.15120
N1366       N  0.36420483  0.65011852  0.47041988     0.74210
O1367       O  0.41677214  0.63731861  0.31057272    -0.39240
O1368       O  0.36074238  0.64239199  0.30055810    -0.39180
O1369       O  0.39034319  0.65477625  0.49036875    -0.39890
O1370       O  0.33362009  0.65352968  0.48292641    -0.39950
C1371       C  0.61686795  0.34391308  0.56861476    -0.12230
C1372       C  0.60339713  0.37524199  0.58272854     0.04770
C1373       C  0.61279114  0.38545925  0.61725986    -0.07520
C1374       C  0.63560772  0.36388003  0.63665877    -0.08270
C1375       C  0.64856114  0.33230649  0.62271588    -0.02820
C1376       C  0.63930602  0.32207306  0.58822698     0.04000
N1377       N  0.65256254  0.29011019  0.57263643     0.66510
H1378       H  0.61004889  0.33665028  0.54191922     0.15400
H1379       H  0.64266493  0.37131837  0.66325460     0.15120
N1380       N  0.60042783  0.41778155  0.63272709     0.74210
O1381       O  0.63564561  0.27517516  0.54827990    -0.39240
O1382       O  0.68249158  0.27826456  0.58087762    -0.39180
O1383       O  0.56865639  0.42694364  0.62969888    -0.39890
O1384       O  0.62003787  0.43479769  0.65342831    -0.39950
C1385       C  0.41762900  0.39780872  0.65894711    -0.12230
C1386       C  0.41717617  0.39613590  0.62216564     0.04770
C1387       C  0.39375298  0.37289974  0.60511073    -0.07520
C1388       C  0.37245334  0.35082475  0.62543039    -0.08270
C1389       C  0.37359423  0.35125442  0.66238900    -0.02820
C1390       C  0.39583088  0.37601027  0.67929121     0.04000
N1391       N  0.39696023  0.37940821  0.71679512     0.66510
H1392       H  0.43503837  0.41625555  0.67195635     0.15400
H1393       H  0.35504352  0.33273541  0.61196732     0.15120
N1394       N  0.39052491  0.37171633  0.56740085     0.74210
O1395       O  0.42619072  0.37797138  0.73248021    -0.39240
O1396       O  0.37060593  0.39167035  0.73288687    -0.39180
O1397       O  0.41742896  0.37273301  0.54800825    -0.39890
O1398       O  0.36096352  0.36576332  0.55347754    -0.39950
C1399       C  0.57971203  0.60606159  0.34146762    -0.12230
C1400       C  0.58452440  0.60330321  0.37785282     0.04770
C1401       C  0.60970703  0.62461709  0.39480055    -0.07520
C1402       C  0.62875621  0.64908845  0.37500522    -0.08270
C1403       C  0.62380204  0.65252614  0.33856671    -0.02820
C1404       C  0.59884514  0.63060881  0.32153883     0.04000
N1405       N  0.59112012  0.63407864  0.28473262     0.66510
H1406       H  0.55981876  0.59008639  0.32876109     0.15400
H1407       H  0.64834444  0.66504488  0.38817685     0.15120
N1408       N  0.61652215  0.62155930  0.43189336     0.74210
O1409       O  0.58482710  0.60703590  0.26650101    -0.39240
O1410       O  0.58477312  0.66402275  0.27185982    -0.39180
O1411       O  0.61686530  0.59174139  0.44644521    -0.39890
O1412       O  0.62658396  0.64801652  0.44926855    -0.39950
C1413       C  0.38587443  0.59107330  0.63582295    -0.12230
C1414       C  0.37356248  0.58074832  0.60264074     0.04770
C1415       C  0.34056150  0.59316822  0.59074947    -0.07520
C1416       C  0.32070250  0.61533764  0.61265745    -0.08270
C1417       C  0.33290376  0.62568713  0.64604031    -0.02820
C1418       C  0.36654025  0.61407764  0.65720678     0.04000
N1419       N  0.38253242  0.62694506  0.68889005     0.66510
H1420       H  0.41168970  0.58255069  0.64446335     0.15400
H1421       H  0.29499917  0.62385880  0.60376260     0.15120
N1422       N  0.32614895  0.58265332  0.55735852     0.74210
O1423       O  0.39947042  0.60615801  0.70847892    -0.39240
O1424       O  0.38566868  0.65967782  0.69359147    -0.39180
O1425       O  0.32960499  0.55140812  0.54660796    -0.39890
O1426       O  0.30606879  0.60322803  0.54071643    -0.39950
C1427       C  0.65951326  0.41794128  0.39673496    -0.12230
C1428       C  0.62271167  0.41615029  0.39611728     0.04770
C1429       C  0.60586794  0.39179190  0.37369225    -0.07520
C1430       C  0.62638656  0.37091965  0.35130640    -0.08270
C1431       C  0.66330455  0.37342522  0.35067917    -0.02820
C1432       C  0.68005479  0.39656168  0.37465590     0.04000
N1433       N  0.71759680  0.39917524  0.37680524     0.66510
H1434       H  0.67238389  0.43613078  0.41451671     0.15400
H1435       H  0.61312777  0.35277584  0.33379000     0.15120
N1436       N  0.56822894  0.38731925  0.37353007     0.74210
O1437       O  0.73207904  0.42891694  0.37412654    -0.39240
O1438       O  0.73507568  0.37380855  0.38922216    -0.39180
O1439       O  0.54793795  0.41355021  0.37531664    -0.39890
O1440       O  0.55514288  0.35732705  0.36784828    -0.39950
loop_ 
_geom_bond_atom_site_label_1 
_geom_bond_atom_site_label_2 
_geom_bond_distance 
_geom_bond_site_symmetry_2 
_ccdc_geom_bond_type 
O1           Mg3   2.136       .  S
O1           Mg9   2.143       .  S
O1           C36   1.238       .  S
C2           O15   1.237       .  S
C2           O39   1.271       .  A
C2           H41   1.081       .  S
Mg3          O32   2.149       .  S
Mg3          O47   2.312       .  S
Mg3          O43   2.254       .  S
Mg3          O14   2.297       .  S
O4          Mg46   2.146       .  S
O4          Mg29   2.134       .  S
O4           C25   1.237       .  S
O5           C36   1.272       .  A
O5          Mg29   2.301       .  S
C6            O8   1.273       .  A
C6           O20   1.277       .  A
C6         C1358   1.482       .  S
O7           C35   1.271       .  A
O7           Mg9   2.299       .  S
O8          Mg40   2.257       .  S
Mg9          O15   2.130       .  S
Mg9          O23   2.255       .  S
Mg9          O11   2.301       .  S
C10          O48   1.272       .  A
C10          O16   1.274       .  A
C10        C1400   1.468       .  S
O11          C18   1.274       .  A
H12          C25   1.081       .  S
C13          O27   1.237       .  S
C13          O28   1.270       .  A
C13          H38   1.081       .  S
O14          C37   1.271       .  A
O15         Mg29   2.144       .  S
O16         Mg46   2.306       .  S
C17          O30   1.271       .  A
C17          O22   1.275       .  A
C17        C1428   1.468       .  S
C18          O45   1.272       .  A
C18        C1372   1.470       .  S
Mg19         O26   2.134       .  S
Mg19         O27   2.145       .  S
Mg19         O20   2.317       .  S
Mg19         O21   2.296       .  S
Mg19         O48   2.261       .  S
O21          C25   1.271       .  A
O22         Mg29   2.312       .  S
O23          C42   1.271       .  A
O24          C44   1.276       .  A
O24         Mg40   2.306       .  S
O26         Mg40   2.144       .  S
O26          C37   1.237       .  S
O27         Mg46   2.133       .  S
O28         Mg40   2.296       .  S
Mg29         O45   2.262       .  S
O30         Mg46   2.255       .  S
H31          C36   1.081       .  S
O32         Mg40   2.134       .  S
O32          C35   1.237       .  S
H33          C35   1.081       .  S
H34          C37   1.081       .  S
O39         Mg46   2.299       .  S
C42          O47   1.275       .  A
C42        C1386   1.469       .  S
O43          C44   1.272       .  A
C44        C1414   1.476       .  S
O49         Mg51   2.136   1_655  S
O49         Mg57   2.143   1_655  S
O49          C84   1.237       .  S
C50          O63   1.237       .  S
C50          O87   1.271       .  A
C50          H89   1.081   1_655  S
Mg51         O80   2.140       .  S
Mg51         O95   2.306       .  S
Mg51         O91   2.256       .  S
Mg51         O62   2.301       .  S
O52         Mg94   2.147       .  S
O52         Mg77   2.136       .  S
O52          C73   1.237       .  S
O53          C84   1.271       .  A
O53         Mg77   2.300       .  S
C54          O56   1.273       .  A
C54          O68   1.275       .  A
C54        C1305   1.488       .  S
O55          C83   1.272       .  A
O55         Mg57   2.304       .  S
O56         Mg88   2.259       .  S
Mg57         O63   2.137   1_455  S
Mg57         O71   2.258       .  S
Mg57         O59   2.303   1_455  S
C58          O96   1.272       .  A
C58          O64   1.275       .  A
C58        C1291   1.474       .  S
O59          C66   1.274       .  A
H60          C73   1.081       .  S
C61          O75   1.237       .  S
C61          O76   1.271       .  A
C61          H86   1.081       .  S
O62          C85   1.271       .  A
O63         Mg77   2.150       .  S
O64         Mg94   2.309       .  S
C65          O78   1.271       .  A
C65          O70   1.277       .  A
C65        C1316   1.485       .  S
C66          O93   1.272       .  A
C66        C1344   1.470       .  S
Mg67         O74   2.139   1_655  S
Mg67         O75   2.144   1_655  S
Mg67         O68   2.307   1_655  S
Mg67         O69   2.298       .  S
Mg67         O96   2.267       .  S
O69          C73   1.271       .  A
O70         Mg77   2.315       .  S
O71          C90   1.271       .  A
O72          C92   1.276       .  A
O72         Mg88   2.320       .  S
O74         Mg88   2.144       .  S
O74          C85   1.237       .  S
O75         Mg94   2.132   1_455  S
O76         Mg88   2.300       .  S
Mg77         O93   2.267       .  S
O78         Mg94   2.251       .  S
H79          C84   1.081       .  S
O80         Mg88   2.139       .  S
O80          C83   1.238       .  S
H81          C83   1.081       .  S
H82          C85   1.081       .  S
O87         Mg94   2.297       .  S
C90          O95   1.275       .  A
C90        C1274   1.474       .  S
O91          C92   1.270       .  A
C92        C1330   1.478       .  S
O97         Mg99   2.129   1_556  S
O97        Mg105   2.150   1_556  S
O97         C132   1.238       .  S
C98         O111   1.238       .  S
C98         O135   1.272       .  A
C98         H137   1.081       .  S
Mg99        O128   2.144       .  S
Mg99        O143   2.315       .  S
Mg99        O139   2.268       .  S
Mg99        O110   2.302       .  S
O100       Mg142   2.134       .  S
O100       Mg125   2.136       .  S
O100        C121   1.237       .  S
O101        C132   1.271       .  A
O101       Mg125   2.292       .  S
C102        O104   1.271       .  A
C102        O116   1.276       .  A
C102       C1221   1.494       .  S
O103        C131   1.271       .  A
O103       Mg105   2.296       .  S
O104       Mg136   2.251       .  S
Mg105       O111   2.133   1_554  S
Mg105       O119   2.250       .  S
Mg105       O107   2.313   1_554  S
C106        O144   1.273       .  A
C106        O112   1.278       .  A
C106       C1246   1.493       .  S
O107        C114   1.275       .  A
H108        C121   1.081       .  S
C109        O123   1.239       .  S
C109        O124   1.273       .  A
C109        H134   1.081       .  S
O110        C133   1.271       .  A
O111       Mg125   2.144       .  S
O112       Mg142   2.318       .  S
C113        O126   1.273       .  A
C113        O118   1.276       .  A
C113       C1190   1.475       .  S
C114        O141   1.273       .  A
C114       C1260   1.474       .  S
Mg115       O122   2.140   1_556  S
Mg115       O123   2.141   1_556  S
Mg115       O116   2.321   1_556  S
Mg115       O117   2.303       .  S
Mg115       O144   2.275       .  S
O117        C121   1.272       .  A
O118       Mg125   2.317       .  S
O119        C138   1.271       .  A
O120        C140   1.275       .  A
O120       Mg136   2.315       .  S
O122       Mg136   2.139       .  S
O122        C133   1.237       .  S
O123       Mg142   2.140   1_554  S
O124       Mg136   2.306       .  S
Mg125       O141   2.266       .  S
O126       Mg142   2.269       .  S
H127        C132   1.081       .  S
O128       Mg136   2.136       .  S
O128        C131   1.237       .  S
H129        C131   1.081       .  S
H130        C133   1.081       .  S
O135       Mg142   2.301       .  S
C138        O143   1.278       .  A
C138       C1204   1.491       .  S
O139        C140   1.272       .  A
C140       C1235   1.472       .  S
O145       Mg147   2.133       .  S
O145       Mg153   2.142       .  S
O145        C180   1.238   1_565  S
C146        O159   1.237       .  S
C146        O183   1.272       .  A
C146        H185   1.081   1_545  S
Mg147       O176   2.147       .  S
Mg147       O191   2.313       .  S
Mg147       O187   2.267       .  S
Mg147       O158   2.290       .  S
O148       Mg190   2.143       .  S
O148       Mg173   2.134       .  S
O148        C169   1.237       .  S
O149        C180   1.271       .  A
O149       Mg173   2.298       .  S
C150        O152   1.272       .  A
C150        O164   1.273       .  A
C150       C1151   1.469       .  S
O151        C179   1.270       .  A
O151       Mg153   2.294       .  S
O152       Mg184   2.258       .  S
Mg153       O159   2.143   1_565  S
Mg153       O167   2.263       .  S
Mg153       O155   2.304   1_565  S
C154        O192   1.269       .  A
C154        O160   1.277       .  A
C154       C1137   1.490       .  S
O155        C162   1.275       .  A
H156        C169   1.081       .  S
C157        O171   1.238   1_565  S
C157        O172   1.272       .  A
C157        H182   1.081       .  S
O158        C181   1.270       .  A
O159       Mg173   2.147       .  S
O160       Mg190   2.324       .  S
C161        O174   1.272       .  A
C161        O166   1.277       .  A
C161       C1165   1.479       .  S
C162        O189   1.272       .  A
C162       C1109   1.475       .  S
Mg163       O170   2.125   1_545  S
Mg163       O171   2.139       .  S
Mg163       O164   2.299   1_545  S
Mg163       O165   2.298       .  S
Mg163       O192   2.242       .  S
O165        C169   1.271       .  A
O166       Mg173   2.318       .  S
O167        C186   1.272       .  A
O168        C188   1.275       .  A
O168       Mg184   2.311       .  S
O170       Mg184   2.145       .  S
O170        C181   1.237       .  S
O171       Mg190   2.130       .  S
O172       Mg184   2.299       .  S
Mg173       O189   2.254       .  S
O174       Mg190   2.251       .  S
H175        C180   1.081       .  S
O176       Mg184   2.128       .  S
O176        C179   1.237       .  S
H177        C179   1.081       .  S
H178        C181   1.081   1_545  S
O183       Mg190   2.303       .  S
C186        O191   1.277       .  A
C186       C1179   1.479       .  S
O187        C188   1.273       .  A
C188       C1120   1.472       .  S
O193       Mg195   2.133   1_454  S
O193       Mg201   2.141   1_554  S
O193        C228   1.237       .  S
C194        O207   1.237       .  S
C194        O231   1.270       .  A
C194        H233   1.081       .  S
Mg195       O224   2.150   1_655  S
Mg195       O239   2.321   1_655  S
Mg195       O235   2.250       .  S
Mg195       O206   2.298       .  S
O196       Mg238   2.145   1_655  S
O196       Mg221   2.136   1_655  S
O196        C217   1.238       .  S
O197        C228   1.271       .  A
O197       Mg221   2.299       .  S
C198        O200   1.273       .  A
C198        O212   1.276       .  A
C198       C1078   1.473       .  S
O199        C227   1.270       .  A
O199       Mg201   2.295       .  S
O200       Mg232   2.267       .  S
Mg201       O207   2.128   1_556  S
Mg201       O215   2.244       .  S
Mg201       O203   2.299   1_556  S
C202        O240   1.272       .  A
C202        O208   1.274       .  A
C202       C1067   1.471       .  S
O203        C210   1.273       .  A
H204        C217   1.081       .  S
C205        O219   1.237       .  S
C205        O220   1.271       .  A
C205        H230   1.081       .  S
O206        C229   1.271       .  A
O207       Mg221   2.142       .  S
O208       Mg238   2.303   1_655  S
C209        O222   1.273       .  A
C209        O214   1.274       .  A
C209       C1025   1.491       .  S
C210        O237   1.273       .  A
C210       C1036   1.490       .  S
Mg211       O218   2.139   1_554  S
Mg211       O219   2.146   1_554  S
Mg211       O212   2.317   1_554  S
Mg211       O213   2.302       .  S
Mg211       O240   2.263       .  S
O213        C217   1.272       .  A
O214       Mg221   2.313       .  S
O215        C234   1.270       .  A
O216        C236   1.278       .  A
O216       Mg232   2.315       .  S
O218       Mg232   2.148       .  S
O218        C229   1.238       .  S
O219       Mg238   2.140   1_656  S
O220       Mg232   2.301       .  S
Mg221       O237   2.261       .  S
O222       Mg238   2.259       .  S
H223        C228   1.081       .  S
O224       Mg232   2.133   1_455  S
O224        C227   1.237       .  S
H225        C227   1.081       .  S
H226        C229   1.081       .  S
O231       Mg238   2.297       .  S
C234        O239   1.276       .  A
C234       C1050   1.476       .  S
O235        C236   1.271       .  A
C236       C1095   1.489       .  S
O241       Mg243   2.132   1_445  S
O241       Mg249   2.145   1_455  S
O241        C276   1.238       .  S
C242        O255   1.237       .  S
C242        O279   1.270       .  A
C242        H281   1.081       .  S
Mg243       O272   2.146   1_565  S
Mg243       O287   2.313   1_565  S
Mg243       O283   2.245       .  S
Mg243       O254   2.298       .  S
O244       Mg286   2.140   1_565  S
O244       Mg269   2.128   1_565  S
O244        C265   1.237       .  S
O245        C276   1.271       .  A
O245       Mg269   2.298       .  S
C246        O248   1.274       .  A
C246        O260   1.273       .  A
C246        C966   1.474       .  S
O247        C275   1.271       .  A
O247       Mg249   2.300       .  S
O248       Mg280   2.268       .  S
Mg249       O255   2.125   1_655  S
Mg249       O263   2.250       .  S
Mg249       O251   2.307   1_655  S
C250        O288   1.273       .  A
C250        O256   1.274       .  A
C250        C994   1.487       .  S
O251        C258   1.276       .  A
H252        C265   1.081       .  S
C253        O267   1.237       .  S
C253        O268   1.271       .  A
C253        H278   1.081       .  S
O254        C277   1.270       .  A
O255       Mg269   2.146       .  S
O256       Mg286   2.304   1_565  S
C257        O270   1.273       .  A
C257        O262   1.274       .  A
C257        C938   1.487       .  S
C258        O285   1.271       .  A
C258        C952   1.475       .  S
Mg259       O266   2.135   1_455  S
Mg259       O267   2.144   1_455  S
Mg259       O260   2.292   1_455  S
Mg259       O261   2.295       .  S
Mg259       O288   2.265       .  S
O261        C265   1.270       .  A
O262       Mg269   2.313       .  S
O263        C282   1.272       .  A
O264        C284   1.277       .  A
O264       Mg280   2.323       .  S
O266       Mg280   2.152       .  S
O266        C277   1.237       .  S
O267       Mg286   2.130   1_665  S
O268       Mg280   2.297       .  S
Mg269       O285   2.248       .  S
O270       Mg286   2.247       .  S
H271        C276   1.081       .  S
O272       Mg280   2.141   1_545  S
O272        C275   1.237       .  S
H273        C275   1.081       .  S
H274        C277   1.081       .  S
O279       Mg286   2.294       .  S
C282        O287   1.275       .  A
C282        C980   1.489       .  S
O283        C284   1.272       .  A
C284       C1008   1.478       .  S
O289       Mg291   2.143   1_544  S
O289       Mg297   2.143   1_545  S
O289        C324   1.238       .  S
C290        O303   1.237       .  S
C290        O327   1.271       .  A
C290        H329   1.081       .  S
Mg291       O320   2.140   1_556  S
Mg291       O335   2.314   1_556  S
Mg291       O331   2.260       .  S
Mg291       O302   2.300       .  S
O292       Mg334   2.146   1_556  S
O292       Mg317   2.135   1_556  S
O292        C313   1.237       .  S
O293        C324   1.273       .  A
O293       Mg317   2.304       .  S
C294        O296   1.274       .  A
C294        O308   1.274       .  A
C294        C896   1.487       .  S
O295        C323   1.271       .  A
O295       Mg297   2.302       .  S
O296       Mg328   2.268       .  S
Mg297       O303   2.135   1_565  S
Mg297       O311   2.266       .  S
Mg297       O299   2.310   1_565  S
C298        O336   1.272       .  A
C298        O304   1.275       .  A
C298        C910   1.475       .  S
O299        C306   1.275       .  A
H300        C313   1.081       .  S
C301        O315   1.237       .  S
C301        O316   1.270       .  A
C301        H326   1.081       .  S
O302        C325   1.271       .  A
O303       Mg317   2.145       .  S
O304       Mg334   2.304   1_556  S
C305        O318   1.271       .  A
C305        O310   1.276       .  A
C305        C854   1.471       .  S
C306        O333   1.271       .  A
C306        C868   1.469       .  S
Mg307       O314   2.132   1_545  S
Mg307       O315   2.151   1_545  S
Mg307       O308   2.303   1_545  S
Mg307       O309   2.294       .  S
Mg307       O336   2.258       .  S
O309        C313   1.271       .  A
O310       Mg317   2.316       .  S
O311        C330   1.272       .  A
O312        C332   1.277       .  A
O312       Mg328   2.315       .  S
O314       Mg328   2.147       .  S
O314        C325   1.238       .  S
O315       Mg334   2.130   1_566  S
O316       Mg328   2.295       .  S
Mg317       O333   2.258       .  S
O318       Mg334   2.255       .  S
H319        C324   1.081       .  S
O320       Mg328   2.136   1_554  S
O320        C323   1.237       .  S
H321        C323   1.081       .  S
H322        C325   1.081       .  S
O327       Mg334   2.299       .  S
C330        O335   1.276       .  A
C330        C882   1.478       .  S
O331        C332   1.271       .  A
C332        C924   1.484       .  S
O337       Mg339   2.133   1_546  S
O337       Mg345   2.141   1_545  S
O337        C372   1.237       .  S
C338        O351   1.238       .  S
C338        O375   1.271       .  A
C338        H377   1.081   1_545  S
Mg339       O368   2.148   1_554  S
Mg339       O383   2.308   1_554  S
Mg339       O379   2.257       .  S
Mg339       O350   2.301       .  S
O340       Mg382   2.146   1_554  S
O340       Mg365   2.129   1_654  S
O340        C361   1.237       .  S
O341        C372   1.271       .  A
O341       Mg365   2.301       .  S
C342        O344   1.273       .  A
C342        O356   1.276       .  A
C342        C840   1.475       .  S
O343        C371   1.273       .  A
O343       Mg345   2.308       .  S
O344       Mg376   2.269       .  S
Mg345       O351   2.137   1_465  S
Mg345       O359   2.264       .  S
Mg345       O347   2.334   1_565  S
C346        O384   1.272       .  A
C346        O352   1.274       .  A
C346        C770   1.476       .  S
O347        C354   1.279       .  A
H348        C361   1.081       .  S
C349        O363   1.237       .  S
C349        O364   1.271       .  A
C349        H374   1.081       .  S
O350        C373   1.271       .  A
O351       Mg365   2.138   1_655  S
O352       Mg382   2.307   1_554  S
C353        O366   1.272       .  A
C353        O358   1.273       .  A
C353        C826   1.487       .  S
C354        O381   1.269       .  A
C354        C798   1.492       .  S
Mg355       O362   2.141   1_645  S
Mg355       O363   2.141   1_545  S
Mg355       O356   2.312   1_545  S
Mg355       O357   2.299       .  S
Mg355       O384   2.265       .  S
O357        C361   1.271       .  A
O358       Mg365   2.299   1_655  S
O359        C378   1.272       .  A
O360        C380   1.275       .  A
O360       Mg376   2.311   1_455  S
O362       Mg376   2.143   1_455  S
O362        C373   1.237       .  S
O363       Mg382   2.132   1_564  S
O364       Mg376   2.300       .  S
Mg365       O381   2.244       .  S
O366       Mg382   2.261       .  S
H367        C372   1.081       .  S
O368       Mg376   2.148   1_456  S
O368        C371   1.239       .  S
H369        C371   1.081       .  S
H370        C373   1.081       .  S
O375       Mg382   2.299       .  S
C378        O383   1.275       .  A
C378        C812   1.475       .  S
O379        C380   1.271       .  A
C380        C784   1.469       .  S
O385       Mg387   2.130       .  S
O385       Mg393   2.144       .  S
O385        C420   1.237       .  S
C386        O399   1.238       .  S
C386        O423   1.272       .  A
C386        H425   1.081       .  S
Mg387       O416   2.144       .  S
Mg387       O431   2.305       .  S
Mg387       O427   2.246       .  S
Mg387       O398   2.297       .  S
O388       Mg430   2.136       .  S
O388       Mg413   2.143       .  S
O388        C409   1.238       .  S
O389        C420   1.271       .  A
O389       Mg413   2.299       .  S
C390        O392   1.271       .  A
C390        O404   1.278       .  A
C390       C1064   1.491       .  S
O391        C419   1.270       .  A
O391       Mg393   2.296       .  S
O392       Mg424   2.248       .  S
Mg393       O399   2.134       .  S
Mg393       O407   2.254       .  S
Mg393       O395   2.300       .  S
C394        O432   1.272       .  A
C394        O400   1.276       .  A
C394        C843   1.475       .  S
O395        C402   1.273       .  A
H396        C409   1.081       .  S
C397        O411   1.237       .  S
C397        O412   1.270       .  A
C397        H422   1.081       .  S
O398        C421   1.271       .  A
O399       Mg413   2.143       .  S
O400       Mg430   2.317       .  S
C401        O414   1.270       .  A
C401        O406   1.277       .  A
C401       C1011   1.492       .  S
C402        O429   1.274       .  A
C402       C1123   1.489       .  S
Mg403       O410   2.136       .  S
Mg403       O411   2.141       .  S
Mg403       O404   2.321       .  S
Mg403       O405   2.304       .  S
Mg403       O432   2.263       .  S
O405        C409   1.272       .  A
O406       Mg413   2.324       .  S
O407        C426   1.272       .  A
O408        C428   1.275       .  A
O408       Mg424   2.309       .  S
O410       Mg424   2.145       .  S
O410        C421   1.237       .  S
O411       Mg430   2.128       .  S
O412       Mg424   2.295       .  S
Mg413       O429   2.267       .  S
O414       Mg430   2.244       .  S
H415        C420   1.081       .  S
O416       Mg424   2.130       .  S
O416        C419   1.237       .  S
H417        C419   1.081       .  S
H418        C421   1.081       .  S
O423       Mg430   2.302       .  S
C426        O431   1.274       .  A
C426       C1403   1.484       .  S
O427        C428   1.270       .  A
C428       C1218   1.467       .  S
O433       Mg435   2.130       .  S
O433       Mg441   2.142       .  S
O433        C468   1.237       .  S
C434        O447   1.238       .  S
C434        O471   1.271       .  A
C434        H473   1.081       .  S
Mg435       O464   2.145       .  S
Mg435       O479   2.306       .  S
Mg435       O475   2.256       .  S
Mg435       O446   2.299       .  S
O436       Mg478   2.146       .  S
O436       Mg461   2.130       .  S
O436        C457   1.238       .  S
O437        C468   1.270       .  A
O437       Mg461   2.295       .  S
C438        O440   1.272       .  A
C438        O452   1.275       .  A
C438       C1134   1.469       .  S
O439        C467   1.272       .  A
O439       Mg441   2.302       .  S
O440       Mg472   2.259       .  S
Mg441       O447   2.131       .  S
Mg441       O455   2.262       .  S
Mg441       O443   2.309       .  S
C442        O480   1.271       .  A
C442        O448   1.275       .  A
C442       C1375   1.467       .  S
O443        C450   1.276       .  A
H444        C457   1.081       .  S
C445        O459   1.237       .  S
C445        O460   1.270       .  A
C445        H470   1.081       .  S
O446        C469   1.271       .  A
O447       Mg461   2.153       .  S
O448       Mg478   2.307       .  S
C449        O462   1.272       .  A
C449        O454   1.275       .  A
C449       C1319   1.474       .  S
C450        O477   1.272       .  A
C450       C1092   1.476       .  S
Mg451       O458   2.137       .  S
Mg451       O459   2.142       .  S
Mg451       O452   2.308       .  S
Mg451       O453   2.298       .  S
Mg451       O480   2.259       .  S
O453        C457   1.271       .  A
O454       Mg461   2.307       .  S
O455        C474   1.273       .  A
O456        C476   1.275       .  A
O456       Mg472   2.303       .  S
O458       Mg472   2.149       .  S
O458        C469   1.238       .  S
O459       Mg478   2.131       .  S
O460       Mg472   2.297       .  S
Mg461       O477   2.256       .  S
O462       Mg478   2.258       .  S
H463        C468   1.081       .  S
O464       Mg472   2.135       .  S
O464        C467   1.238       .  S
H465        C467   1.081       .  S
H466        C469   1.081       .  S
O471       Mg478   2.292       .  S
C474        O479   1.274       .  A
C474        C829   1.492       .  S
O475        C476   1.272       .  A
C476        C913   1.487       .  S
O481       Mg483   2.126       .  S
O481       Mg489   2.147       .  S
O481        C516   1.237       .  S
C482        O495   1.237       .  S
C482        O519   1.271       .  A
C482        H521   1.081       .  S
Mg483       O512   2.151       .  S
Mg483       O527   2.302       .  S
Mg483       O523   2.254       .  S
Mg483       O494   2.295       .  S
O484       Mg526   2.145       .  S
O484       Mg509   2.139       .  S
O484        C505   1.237       .  S
O485        C516   1.270       .  A
O485       Mg509   2.294       .  S
C486        O488   1.272       .  A
C486        O500   1.276       .  A
C486       C1193   1.471       .  S
O487        C515   1.270       .  A
O487       Mg489   2.293       .  S
O488       Mg520   2.262       .  S
Mg489       O495   2.131       .  S
Mg489       O503   2.259       .  S
Mg489       O491   2.302       .  S
C490        O528   1.272       .  A
C490        O496   1.276       .  A
C490        C927   1.473       .  S
O491        C498   1.274       .  A
H492        C505   1.081       .  S
C493        O507   1.238       .  S
C493        O508   1.272       .  A
C493        H518   1.081       .  S
O494        C517   1.271       .  A
O495       Mg509   2.146       .  S
O496       Mg526   2.316       .  S
C497        O510   1.274       .  A
C497        O502   1.274       .  A
C497        C815   1.486       .  S
C498        O525   1.273       .  A
C498        C997   1.476       .  S
Mg499       O506   2.131       .  S
Mg499       O507   2.146       .  S
Mg499       O500   2.315       .  S
Mg499       O501   2.302       .  S
Mg499       O528   2.260       .  S
O501        C505   1.271       .  A
O502       Mg509   2.306       .  S
O503        C522   1.273       .  A
O504        C524   1.275       .  A
O504       Mg520   2.306       .  S
O506       Mg520   2.147       .  S
O506        C517   1.237       .  S
O507       Mg526   2.143       .  S
O508       Mg520   2.302       .  S
Mg509       O525   2.269       .  S
O510       Mg526   2.268       .  S
H511        C516   1.081       .  S
O512       Mg520   2.129       .  S
O512        C515   1.237       .  S
H513        C515   1.081       .  S
H514        C517   1.081       .  S
O519       Mg526   2.300       .  S
C522        O527   1.274       .  A
C522       C1302   1.491       .  S
O523        C524   1.272       .  A
C524       C1417   1.489       .  S
O529       Mg531   2.131       .  S
O529       Mg537   2.149       .  S
O529        C564   1.237       .  S
C530        O543   1.237       .  S
C530        O567   1.271       .  A
C530        H569   1.081       .  S
Mg531       O560   2.145       .  S
Mg531       O575   2.309       .  S
Mg531       O571   2.249       .  S
Mg531       O542   2.298       .  S
O532       Mg574   2.138       .  S
O532       Mg557   2.128       .  S
O532        C553   1.237       .  S
O533        C564   1.271       .  A
O533       Mg557   2.296       .  S
C534        O536   1.272       .  A
C534        O548   1.275       .  A
C534       C1162   1.475       .  S
O535        C563   1.271       .  A
O535       Mg537   2.299       .  S
O536       Mg568   2.260       .  S
Mg537       O543   2.131       .  S
Mg537       O551   2.255       .  S
Mg537       O539   2.320       .  S
C538        O576   1.273       .  A
C538        O544   1.274       .  A
C538       C1389   1.490       .  S
O539        C546   1.276       .  A
H540        C553   1.081       .  S
C541        O555   1.237       .  S
C541        O556   1.271       .  A
C541        H566   1.081       .  S
O542        C565   1.271       .  A
O543       Mg557   2.141       .  S
O544       Mg574   2.308       .  S
C545        O558   1.274       .  A
C545        O550   1.276       .  A
C545       C1263   1.493       .  S
C546        O573   1.273       .  A
C546       C1053   1.492       .  S
Mg547       O554   2.134       .  S
Mg547       O555   2.147       .  S
Mg547       O548   2.310       .  S
Mg547       O549   2.295       .  S
Mg547       O576   2.253       .  S
O549        C553   1.271       .  A
O550       Mg557   2.321       .  S
O551        C570   1.273       .  A
O552        C572   1.277       .  A
O552       Mg568   2.320       .  S
O554       Mg568   2.143       .  S
O554        C565   1.237       .  S
O555       Mg574   2.138       .  S
O556       Mg568   2.301       .  S
Mg557       O573   2.245       .  S
O558       Mg574   2.259       .  S
H559        C564   1.081       .  S
O560       Mg568   2.138       .  S
O560        C563   1.238       .  S
H561        C563   1.081       .  S
H562        C565   1.081       .  S
O567       Mg574   2.298       .  S
C570        O575   1.274       .  A
C570        C801   1.480       .  S
O571        C572   1.272       .  A
C572        C941   1.483       .  S
O577       Mg579   2.135       .  S
O577       Mg585   2.150       .  S
O577        C612   1.238       .  S
C578        O591   1.237       .  S
C578        O615   1.270       .  A
C578        H617   1.081       .  S
Mg579       O608   2.148       .  S
Mg579       O623   2.313       .  S
Mg579       O619   2.262       .  S
Mg579       O590   2.301       .  S
O580       Mg622   2.147       .  S
O580       Mg605   2.134       .  S
O580        C601   1.237       .  S
O581        C612   1.271       .  A
O581       Mg605   2.297       .  S
C582        O584   1.272       .  A
C582        O596   1.277       .  A
C582       C1176   1.482       .  S
O583        C611   1.271       .  A
O583       Mg585   2.295       .  S
O584       Mg616   2.261       .  S
Mg585       O591   2.130       .  S
Mg585       O599   2.263       .  S
Mg585       O587   2.318       .  S
C586        O624   1.273       .  A
C586        O592   1.275       .  A
C586        C885   1.473       .  S
O587        C594   1.276       .  A
H588        C601   1.081       .  S
C589        O603   1.237       .  S
C589        O604   1.271       .  A
C589        H614   1.081       .  S
O590        C613   1.272       .  A
O591       Mg605   2.144       .  S
O592       Mg622   2.308       .  S
C593        O606   1.272       .  A
C593        O598   1.276       .  A
C593        C787   1.479       .  S
C594        O621   1.272       .  A
C594       C1022   1.470       .  S
Mg595       O602   2.140       .  S
Mg595       O603   2.144       .  S
Mg595       O596   2.313       .  S
Mg595       O597   2.297       .  S
Mg595       O624   2.267       .  S
O597        C601   1.271       .  A
O598       Mg605   2.313       .  S
O599        C618   1.272       .  A
O600        C620   1.275       .  A
O600       Mg616   2.311       .  S
O602       Mg616   2.146       .  S
O602        C613   1.238       .  S
O603       Mg622   2.134       .  S
O604       Mg616   2.299       .  S
Mg605       O621   2.255       .  S
O606       Mg622   2.255       .  S
H607        C612   1.081       .  S
O608       Mg616   2.137       .  S
O608        C611   1.237       .  S
H609        C611   1.081       .  S
H610        C613   1.081       .  S
O615       Mg622   2.293       .  S
C618        O623   1.275       .  A
C618       C1333   1.473       .  S
O619        C620   1.272       .  A
C620       C1361   1.469       .  S
O625       Mg627   2.126       .  S
O625       Mg633   2.144       .  S
O625        C660   1.237       .  S
C626        O639   1.238       .  S
C626        O663   1.271       .  A
C626        H665   1.081       .  S
Mg627       O656   2.145       .  S
Mg627       O671   2.312       .  S
Mg627       O667   2.250       .  S
Mg627       O638   2.299       .  S
O628       Mg670   2.145       .  S
O628       Mg653   2.130       .  S
O628        C649   1.237       .  S
O629        C660   1.270       .  A
O629       Mg653   2.292       .  S
C630        O632   1.272       .  A
C630        O644   1.276       .  A
C630       C1347   1.477       .  S
O631        C659   1.271       .  A
O631       Mg633   2.298       .  S
O632       Mg664   2.253       .  S
Mg633       O639   2.134       .  S
Mg633       O647   2.260       .  S
Mg633       O635   2.315       .  S
C634        O672   1.272       .  A
C634        O640   1.275       .  A
C634        C983   1.468       .  S
O635        C642   1.275       .  A
H636        C649   1.081       .  S
C637        O651   1.237       .  S
C637        O652   1.271       .  A
C637        H662   1.081       .  S
O638        C661   1.271       .  A
O639       Mg653   2.149       .  S
O640       Mg670   2.311       .  S
C641        O654   1.272       .  A
C641        O646   1.275       .  A
C641        C773   1.471       .  S
C642        O669   1.274       .  A
C642        C857   1.493       .  S
Mg643       O650   2.136       .  S
Mg643       O651   2.144       .  S
Mg643       O644   2.311       .  S
Mg643       O645   2.298       .  S
Mg643       O672   2.258       .  S
O645        C649   1.271       .  A
O646       Mg653   2.310       .  S
O647        C666   1.274       .  A
O648        C668   1.274       .  A
O648       Mg664   2.309       .  S
O650       Mg664   2.149       .  S
O650        C661   1.238       .  S
O651       Mg670   2.135       .  S
O652       Mg664   2.297       .  S
Mg653       O669   2.252       .  S
O654       Mg670   2.257       .  S
H655        C660   1.081       .  S
O656       Mg664   2.135       .  S
O656        C659   1.238       .  S
H657        C659   1.081       .  S
H658        C661   1.081       .  S
O663       Mg670   2.294       .  S
C666        O671   1.275       .  A
C666       C1232   1.484       .  S
O667        C668   1.273       .  A
C668       C1431   1.488       .  S
O673       Mg675   2.135       .  S
O673       Mg681   2.143       .  S
O673        C708   1.238       .  S
C674        O687   1.237       .  S
C674        O711   1.271       .  A
C674        H713   1.081       .  S
Mg675       O704   2.148       .  S
Mg675       O719   2.306       .  S
Mg675       O715   2.261       .  S
Mg675       O686   2.292       .  S
O676       Mg718   2.143       .  S
O676       Mg701   2.138       .  S
O676        C697   1.237       .  S
O677        C708   1.273       .  A
O677       Mg701   2.304       .  S
C678        O680   1.272       .  A
C678        O692   1.274       .  A
C678       C1277   1.468       .  S
O679        C707   1.271       .  A
O679       Mg681   2.296       .  S
O680       Mg712   2.262       .  S
Mg681       O687   2.132       .  S
Mg681       O695   2.257       .  S
Mg681       O683   2.314       .  S
C682        O720   1.270       .  A
C682        O688   1.277       .  A
C682        C955   1.488       .  S
O683        C690   1.276       .  A
H684        C697   1.081       .  S
C685        O699   1.237       .  S
C685        O700   1.270       .  A
C685        H710   1.081       .  S
O686        C709   1.270       .  A
O687       Mg701   2.133       .  S
O688       Mg718   2.308       .  S
C689        O702   1.271       .  A
C689        O694   1.275       .  A
C689       C1106   1.469       .  S
C690        O717   1.271       .  A
C690        C871   1.472       .  S
Mg691       O698   2.124       .  S
Mg691       O699   2.148       .  S
Mg691       O692   2.302       .  S
Mg691       O693   2.297       .  S
Mg691       O720   2.245       .  S
O693        C697   1.271       .  A
O694       Mg701   2.315       .  S
O695        C714   1.272       .  A
O696        C716   1.274       .  A
O696       Mg712   2.300       .  S
O698       Mg712   2.150       .  S
O698        C709   1.237       .  S
O699       Mg718   2.126       .  S
O700       Mg712   2.290       .  S
Mg701       O717   2.263       .  S
O702       Mg718   2.259       .  S
H703        C708   1.081       .  S
O704       Mg712   2.128       .  S
O704        C707   1.237       .  S
H705        C707   1.081       .  S
H706        C709   1.081       .  S
O711       Mg718   2.300       .  S
C714        O719   1.276       .  A
C714       C1207   1.477       .  S
O715        C716   1.273       .  A
C716       C1039   1.479       .  S
O721       Mg723   2.133       .  S
O721       Mg729   2.142       .  S
O721        C756   1.237       .  S
C722        O735   1.238       .  S
C722        O759   1.272       .  A
C722        H761   1.081       .  S
Mg723       O752   2.141       .  S
Mg723       O767   2.295       .  S
Mg723       O763   2.252       .  S
Mg723       O734   2.296       .  S
O724       Mg766   2.140       .  S
O724       Mg749   2.136       .  S
O724        C745   1.238       .  S
O725        C756   1.271       .  A
O725       Mg749   2.301       .  S
C726        O728   1.274       .  A
C726        O740   1.274       .  A
C726        C899   1.494       .  S
O727        C755   1.272       .  A
O727       Mg729   2.303       .  S
O728       Mg760   2.269       .  S
Mg729       O735   2.132       .  S
Mg729       O743   2.262       .  S
Mg729       O731   2.311       .  S
C730        O768   1.270       .  A
C730        O736   1.275       .  A
C730       C1249   1.474       .  S
O731        C738   1.275       .  A
H732        C745   1.081       .  S
C733        O747   1.238       .  S
C733        O748   1.272       .  A
C733        H758   1.081       .  S
O734        C757   1.270       .  A
O735       Mg749   2.142       .  S
O736       Mg766   2.307       .  S
C737        O750   1.271       .  A
C737        O742   1.277       .  A
C737       C1081   1.482       .  S
C738        O765   1.273       .  A
C738       C1288   1.484       .  S
Mg739       O746   2.126       .  S
Mg739       O747   2.141       .  S
Mg739       O740   2.307       .  S
Mg739       O741   2.303       .  S
Mg739       O768   2.254       .  S
O741        C745   1.272       .  A
O742       Mg749   2.318       .  S
O743        C762   1.272       .  A
O744        C764   1.279       .  A
O744       Mg760   2.327       .  S
O746       Mg760   2.139       .  S
O746        C757   1.237       .  S
O747       Mg766   2.140       .  S
O748       Mg760   2.304       .  S
Mg749       O765   2.267       .  S
O750       Mg766   2.265       .  S
H751        C756   1.081       .  S
O752       Mg760   2.136       .  S
O752        C755   1.238       .  S
H753        C755   1.081       .  S
H754        C757   1.081       .  S
O759       Mg766   2.301       .  S
C762        O767   1.272       .  A
C762        C969   1.487       .  S
O763        C764   1.269       .  A
C764       C1148   1.494       .  S
C769        H776   1.084       .  S
C769        C770   1.404       .  A
C769        C774   1.406       .  A
C770        C771   1.415       .  A
C771        C772   1.402       .  A
C771        N778   1.437       .  S
C772        H777   1.084       .  S
C772        C773   1.402       .  A
C773        C774   1.414       .  A
C774        N775   1.442       .  S
N775        O779   1.263       .  A
N775        O780   1.263       .  A
N778        O781   1.262       .  A
N778        O782   1.263       .  A
C783        H790   1.084       .  S
C783        C784   1.400       .  A
C783        C788   1.402       .  A
C784        C785   1.416       .  A
C785        C786   1.408       .  A
C785        N792   1.443       .  S
C786        H791   1.083       .  S
C786        C787   1.404       .  A
C787        C788   1.416       .  A
C788        N789   1.440       .  S
N789        O793   1.263       .  A
N789        O794   1.263       .  A
N792        O795   1.262       .  A
N792        O796   1.263       .  A
C797        H804   1.083       .  S
C797        C798   1.406       .  A
C797        C802   1.410       .  A
C798        C799   1.418       .  A
C799        C800   1.398       .  A
C799        N806   1.436       .  S
C800        H805   1.085       .  S
C800        C801   1.400       .  A
C801        C802   1.423       .  A
C802        N803   1.443       .  S
N803        O807   1.263       .  A
N803        O808   1.260       .  A
N806        O809   1.263       .  A
N806        O810   1.262       .  A
C811        H818   1.084       .  S
C811        C812   1.402       .  A
C811        C816   1.401       .  A
C812        C813   1.414       .  A
C813        C814   1.405       .  A
C813        N820   1.438       .  S
C814        H819   1.083       .  S
C814        C815   1.406       .  A
C815        C816   1.416       .  A
C816        N817   1.432       .  S
N817        O821   1.262       .  A
N817        O822   1.262       .  A
N820        O823   1.262       .  A
N820        O824   1.263       .  A
C825        H832   1.084       .  S
C825        C826   1.405       .  A
C825        C830   1.402       .  A
C826        C827   1.414       .  A
C827        C828   1.401       .  A
C827        N834   1.432       .  S
C828        H833   1.083       .  S
C828        C829   1.408       .  A
C829        C830   1.419       .  A
C830        N831   1.434       .  S
N831        O835   1.263       .  A
N831        O836   1.262       .  A
N834        O837   1.262       .  A
N834        O838   1.262       .  A
C839        H846   1.084       .  S
C839        C840   1.401       .  A
C839        C844   1.405       .  A
C840        C841   1.414       .  A
C841        C842   1.406       .  A
C841        N848   1.441       .  S
C842        H847   1.084       .  S
C842        C843   1.403       .  A
C843        C844   1.418       .  A
C844        N845   1.441       .  S
N845        O849   1.263       .  A
N845        O850   1.261       .  A
N848        O851   1.263       .  A
N848        O852   1.263       .  A
C853        H860   1.084       .  S
C853        C854   1.401       .  A
C853        C858   1.406       .  A
C854        C855   1.412       .  A
C855        C856   1.399       .  A
C855        N862   1.440       .  S
C856        H861   1.083       .  S
C856        C857   1.408       .  A
C857        C858   1.420       .  A
C858        N859   1.434       .  S
N859        O863   1.262       .  A
N859        O864   1.263       .  A
N862        O865   1.261       .  A
N862        O866   1.263       .  A
C867        H874   1.084       .  S
C867        C868   1.401       .  A
C867        C872   1.404       .  A
C868        C869   1.415       .  A
C869        C870   1.405       .  A
C869        N876   1.443       .  S
C870        H875   1.084       .  S
C870        C871   1.402       .  A
C871        C872   1.416       .  A
C872        N873   1.442       .  S
N873        O877   1.263       .  A
N873        O878   1.262       .  A
N876        O879   1.262       .  A
N876        O880   1.263       .  A
C881        H888   1.084       .  S
C881        C882   1.403       .  A
C881        C886   1.406       .  A
C882        C883   1.415       .  A
C883        C884   1.404       .  A
C883        N890   1.439       .  S
C884        H889   1.084       .  S
C884        C885   1.402       .  A
C885        C886   1.416       .  A
C886        N887   1.442       .  S
N887        O891   1.263       .  A
N887        O892   1.262       .  A
N890        O893   1.262       .  A
N890        O894   1.263       .  A
C895        H902   1.084       .  S
C895        C896   1.404       .  A
C895        C900   1.402       .  A
C896        C897   1.414       .  A
C897        C898   1.402       .  A
C897        N904   1.432       .  S
C898        H903   1.083       .  S
C898        C899   1.408       .  A
C899        C900   1.419       .  A
C900        N901   1.433       .  S
N901        O905   1.263       .  A
N901        O906   1.262       .  A
N904        O907   1.262       .  A
N904        O908   1.262       .  A
C909        H916   1.084       .  S
C909        C910   1.402       .  A
C909        C914   1.402       .  A
C910        C911   1.414       .  A
C911        C912   1.404       .  A
C911        N918   1.441       .  S
C912        H917   1.083       .  S
C912        C913   1.407       .  A
C913        C914   1.418       .  A
C914        N915   1.437       .  S
N915        O919   1.263       .  A
N915        O920   1.263       .  A
N918        O921   1.263       .  A
N918        O922   1.263       .  A
C923        H930   1.083       .  S
C923        C924   1.404       .  A
C923        C928   1.408       .  A
C924        C925   1.412       .  A
C925        C926   1.400       .  A
C925        N932   1.430       .  S
C926        H931   1.084       .  S
C926        C927   1.402       .  A
C927        C928   1.421       .  A
C928        N929   1.446       .  S
N929        O933   1.263       .  A
N929        O934   1.261       .  A
N932        O935   1.262       .  A
N932        O936   1.262       .  A
C937        H944   1.084       .  S
C937        C938   1.405       .  A
C937        C942   1.396       .  A
C938        C939   1.418       .  A
C939        C940   1.407       .  A
C939        N946   1.433       .  S
C940        H945   1.084       .  S
C940        C941   1.406       .  A
C941        C942   1.413       .  A
C942        N943   1.435       .  S
N943        O947   1.263       .  A
N943        O948   1.262       .  A
N946        O949   1.262       .  A
N946        O950   1.262       .  A
C951        H958   1.084       .  S
C951        C952   1.400       .  A
C951        C956   1.401       .  A
C952        C953   1.414       .  A
C953        C954   1.402       .  A
C953        N960   1.439       .  S
C954        H959   1.083       .  S
C954        C955   1.406       .  A
C955        C956   1.420       .  A
C956        N957   1.435       .  S
N957        O961   1.262       .  A
N957        O962   1.263       .  A
N960        O963   1.263       .  A
N960        O964   1.263       .  A
C965        H972   1.084       .  S
C965        C966   1.400       .  A
C965        C970   1.400       .  A
C966        C967   1.413       .  A
C967        C968   1.402       .  A
C967        N974   1.435       .  S
C968        H973   1.084       .  S
C968        C969   1.407       .  A
C969        C970   1.418       .  A
C970        N971   1.432       .  S
N971        O975   1.262       .  A
N971        O976   1.260       .  A
N974        O977   1.262       .  A
N974        O978   1.262       .  A
C979        H986   1.083       .  S
C979        C980   1.408       .  A
C979        C984   1.403       .  A
C980        C981   1.419       .  A
C981        C982   1.404       .  A
C981        N988   1.436       .  S
C982        H987   1.084       .  S
C982        C983   1.401       .  A
C983        C984   1.411       .  A
C984        N985   1.443       .  S
N985        O989   1.263       .  A
N985        O990   1.263       .  A
N988        O991   1.263       .  A
N988        O992   1.263       .  A
C993       H1000   1.084       .  S
C993        C994   1.406       .  A
C993        C998   1.404       .  A
C994        C995   1.416       .  A
C995        C996   1.401       .  A
C995       N1002   1.432       .  S
C996       H1001   1.084       .  S
C996        C997   1.402       .  A
C997        C998   1.414       .  A
C998        N999   1.437       .  S
N999       O1003   1.263       .  A
N999       O1004   1.262       .  A
N1002      O1005   1.262       .  A
N1002      O1006   1.262       .  A
C1007      H1014   1.084       .  S
C1007      C1008   1.401       .  A
C1007      C1012   1.395       .  A
C1008      C1009   1.415       .  A
C1009      C1010   1.410       .  A
C1009      N1016   1.440       .  S
C1010      H1015   1.083       .  S
C1010      C1011   1.410       .  A
C1011      C1012   1.417       .  A
C1012      N1013   1.433       .  S
N1013      O1017   1.262       .  A
N1013      O1018   1.263       .  A
N1016      O1019   1.262       .  A
N1016      O1020   1.263       .  A
C1021      H1028   1.084       .  S
C1021      C1022   1.401       .  A
C1021      C1026   1.404       .  A
C1022      C1023   1.412       .  A
C1023      C1024   1.403       .  A
C1023      N1030   1.441       .  S
C1024      H1029   1.083       .  S
C1024      C1025   1.408       .  A
C1025      C1026   1.419       .  A
C1026      N1027   1.433       .  S
N1027      O1031   1.262       .  A
N1027      O1032   1.262       .  A
N1030      O1033   1.262       .  A
N1030      O1034   1.263       .  A
C1035      H1042   1.083       .  S
C1035      C1036   1.408       .  A
C1035      C1040   1.401       .  A
C1036      C1037   1.418       .  A
C1037      C1038   1.400       .  A
C1037      N1044   1.432       .  S
C1038      H1043   1.084       .  S
C1038      C1039   1.403       .  A
C1039      C1040   1.412       .  A
C1040      N1041   1.433       .  S
N1041      O1045   1.262       .  A
N1041      O1046   1.262       .  A
N1044      O1047   1.262       .  A
N1044      O1048   1.262       .  A
C1049      H1056   1.084       .  S
C1049      C1050   1.403       .  A
C1049      C1054   1.409       .  A
C1050      C1051   1.409       .  A
C1051      C1052   1.394       .  A
C1051      N1058   1.432       .  S
C1052      H1057   1.084       .  S
C1052      C1053   1.407       .  A
C1053      C1054   1.422       .  A
C1054      N1055   1.435       .  S
N1055      O1059   1.263       .  A
N1055      O1060   1.263       .  A
N1058      O1061   1.262       .  A
N1058      O1062   1.262       .  A
C1063      H1070   1.083       .  S
C1063      C1064   1.409       .  A
C1063      C1068   1.410       .  A
C1064      C1065   1.417       .  A
C1065      C1066   1.395       .  A
C1065      N1072   1.431       .  S
C1066      H1071   1.085       .  S
C1066      C1067   1.398       .  A
C1067      C1068   1.416       .  A
C1068      N1069   1.443       .  S
N1069      O1073   1.263       .  A
N1069      O1074   1.262       .  A
N1072      O1075   1.262       .  A
N1072      O1076   1.262       .  A
C1077      H1084   1.084       .  S
C1077      C1078   1.401       .  A
C1077      C1082   1.403       .  A
C1078      C1079   1.417       .  A
C1079      C1080   1.407       .  A
C1079      N1086   1.443       .  S
C1080      H1085   1.084       .  S
C1080      C1081   1.404       .  A
C1081      C1082   1.414       .  A
C1082      N1083   1.433       .  S
N1083      O1087   1.262       .  A
N1083      O1088   1.262       .  A
N1086      O1089   1.262       .  A
N1086      O1090   1.263       .  A
C1091      H1098   1.084       .  S
C1091      C1092   1.400       .  A
C1091      C1096   1.402       .  A
C1092      C1093   1.414       .  A
C1093      C1094   1.404       .  A
C1093      N1100   1.440       .  S
C1094      H1099   1.083       .  S
C1094      C1095   1.407       .  A
C1095      C1096   1.419       .  A
C1096      N1097   1.436       .  S
N1097      O1101   1.263       .  A
N1097      O1102   1.263       .  A
N1100      O1103   1.263       .  A
N1100      O1104   1.263       .  A
C1105      H1112   1.084       .  S
C1105      C1106   1.401       .  A
C1105      C1110   1.406       .  A
C1106      C1107   1.413       .  A
C1107      C1108   1.400       .  A
C1107      N1114   1.440       .  S
C1108      H1113   1.084       .  S
C1108      C1109   1.403       .  A
C1109      C1110   1.417       .  A
C1110      N1111   1.440       .  S
N1111      O1115   1.263       .  A
N1111      O1116   1.262       .  A
N1114      O1117   1.261       .  A
N1114      O1118   1.263       .  A
C1119      H1126   1.084       .  S
C1119      C1120   1.400       .  A
C1119      C1124   1.405       .  A
C1120      C1121   1.412       .  A
C1121      C1122   1.401       .  A
C1121      N1128   1.439       .  S
C1122      H1127   1.083       .  S
C1122      C1123   1.406       .  A
C1123      C1124   1.419       .  A
C1124      N1125   1.432       .  S
N1125      O1129   1.262       .  A
N1125      O1130   1.262       .  A
N1128      O1131   1.262       .  A
N1128      O1132   1.263       .  A
C1133      H1140   1.085       .  S
C1133      C1134   1.397       .  A
C1133      C1138   1.396       .  A
C1134      C1135   1.415       .  A
C1135      C1136   1.410       .  A
C1135      N1142   1.442       .  S
C1136      H1141   1.083       .  S
C1136      C1137   1.408       .  A
C1137      C1138   1.417       .  A
C1138      N1139   1.431       .  S
N1139      O1143   1.262       .  A
N1139      O1144   1.262       .  A
N1142      O1145   1.262       .  A
N1142      O1146   1.263       .  A
C1147      H1154   1.083       .  S
C1147      C1148   1.410       .  A
C1147      C1152   1.409       .  A
C1148      C1149   1.421       .  A
C1149      C1150   1.397       .  A
C1149      N1156   1.432       .  S
C1150      H1155   1.085       .  S
C1150      C1151   1.394       .  A
C1151      C1152   1.416       .  A
C1152      N1153   1.443       .  S
N1153      O1157   1.263       .  A
N1153      O1158   1.262       .  A
N1156      O1159   1.262       .  A
N1156      O1160   1.263       .  A
C1161      H1168   1.084       .  S
C1161      C1162   1.401       .  A
C1161      C1166   1.400       .  A
C1162      C1163   1.416       .  A
C1163      C1164   1.408       .  A
C1163      N1170   1.438       .  S
C1164      H1169   1.084       .  S
C1164      C1165   1.404       .  A
C1165      C1166   1.415       .  A
C1166      N1167   1.439       .  S
N1167      O1171   1.263       .  A
N1167      O1172   1.263       .  A
N1170      O1173   1.262       .  A
N1170      O1174   1.263       .  A
C1175      H1182   1.084       .  S
C1175      C1176   1.405       .  A
C1175      C1180   1.403       .  A
C1176      C1177   1.416       .  A
C1177      C1178   1.404       .  A
C1177      N1184   1.438       .  S
C1178      H1183   1.084       .  S
C1178      C1179   1.403       .  A
C1179      C1180   1.414       .  A
C1180      N1181   1.434       .  S
N1181      O1185   1.262       .  A
N1181      O1186   1.262       .  A
N1184      O1187   1.263       .  A
N1184      O1188   1.263       .  A
C1189      H1196   1.083       .  S
C1189      C1190   1.402       .  A
C1189      C1194   1.408       .  A
C1190      C1191   1.415       .  A
C1191      C1192   1.404       .  A
C1191      N1198   1.441       .  S
C1192      H1197   1.084       .  S
C1192      C1193   1.402       .  A
C1193      C1194   1.419       .  A
C1194      N1195   1.447       .  S
N1195      O1199   1.263       .  A
N1195      O1200   1.262       .  A
N1198      O1201   1.262       .  A
N1198      O1202   1.263       .  A
C1203      H1210   1.083       .  S
C1203      C1204   1.407       .  A
C1203      C1208   1.404       .  A
C1204      C1205   1.420       .  A
C1205      C1206   1.401       .  A
C1205      N1212   1.434       .  S
C1206      H1211   1.084       .  S
C1206      C1207   1.400       .  A
C1207      C1208   1.415       .  A
C1208      N1209   1.440       .  S
N1209      O1213   1.263       .  A
N1209      O1214   1.263       .  A
N1212      O1215   1.263       .  A
N1212      O1216   1.262       .  A
C1217      H1224   1.084       .  S
C1217      C1218   1.398       .  A
C1217      C1222   1.400       .  A
C1218      C1219   1.413       .  A
C1219      C1220   1.404       .  A
C1219      N1226   1.442       .  S
C1220      H1225   1.083       .  S
C1220      C1221   1.409       .  A
C1221      C1222   1.417       .  A
C1222      N1223   1.429       .  S
N1223      O1227   1.263       .  A
N1223      O1228   1.260       .  A
N1226      O1229   1.262       .  A
N1226      O1230   1.263       .  A
C1231      H1238   1.084       .  S
C1231      C1232   1.405       .  A
C1231      C1236   1.403       .  A
C1232      C1233   1.415       .  A
C1233      C1234   1.405       .  A
C1233      N1240   1.433       .  S
C1234      H1239   1.084       .  S
C1234      C1235   1.402       .  A
C1235      C1236   1.414       .  A
C1236      N1237   1.441       .  S
N1237      O1241   1.263       .  A
N1237      O1242   1.262       .  A
N1240      O1243   1.262       .  A
N1240      O1244   1.262       .  A
C1245      H1252   1.083       .  S
C1245      C1246   1.408       .  A
C1245      C1250   1.410       .  A
C1246      C1247   1.414       .  A
C1247      C1248   1.396       .  A
C1247      N1254   1.427       .  S
C1248      H1253   1.085       .  S
C1248      C1249   1.397       .  A
C1249      C1250   1.422       .  A
C1250      N1251   1.447       .  S
N1251      O1255   1.263       .  A
N1251      O1256   1.261       .  A
N1254      O1257   1.262       .  A
N1254      O1258   1.262       .  A
C1259      H1266   1.084       .  S
C1259      C1260   1.401       .  A
C1259      C1264   1.408       .  A
C1260      C1261   1.411       .  A
C1261      C1262   1.401       .  A
C1261      N1268   1.440       .  S
C1262      H1267   1.083       .  S
C1262      C1263   1.407       .  A
C1263      C1264   1.421       .  A
C1264      N1265   1.435       .  S
N1265      O1269   1.263       .  A
N1265      O1270   1.262       .  A
N1268      O1271   1.262       .  A
N1268      O1272   1.263       .  A
C1273      H1280   1.084       .  S
C1273      C1274   1.402       .  A
C1273      C1278   1.404       .  A
C1274      C1275   1.415       .  A
C1275      C1276   1.404       .  A
C1275      N1282   1.440       .  S
C1276      H1281   1.084       .  S
C1276      C1277   1.400       .  A
C1277      C1278   1.414       .  A
C1278      N1279   1.441       .  S
N1279      O1283   1.263       .  A
N1279      O1284   1.262       .  A
N1282      O1285   1.263       .  A
N1282      O1286   1.263       .  A
C1287      H1294   1.084       .  S
C1287      C1288   1.405       .  A
C1287      C1292   1.406       .  A
C1288      C1289   1.415       .  A
C1289      C1290   1.402       .  A
C1289      N1296   1.433       .  S
C1290      H1295   1.084       .  S
C1290      C1291   1.402       .  A
C1291      C1292   1.416       .  A
C1292      N1293   1.441       .  S
N1293      O1297   1.263       .  A
N1293      O1298   1.262       .  A
N1296      O1299   1.262       .  A
N1296      O1300   1.262       .  A
C1301      H1308   1.083       .  S
C1301      C1302   1.407       .  A
C1301      C1306   1.402       .  A
C1302      C1303   1.417       .  A
C1303      C1304   1.401       .  A
C1303      N1310   1.433       .  S
C1304      H1309   1.084       .  S
C1304      C1305   1.406       .  A
C1305      C1306   1.417       .  A
C1306      N1307   1.435       .  S
N1307      O1311   1.263       .  A
N1307      O1312   1.262       .  A
N1310      O1313   1.262       .  A
N1310      O1314   1.262       .  A
C1315      H1322   1.083       .  S
C1315      C1316   1.405       .  A
C1315      C1320   1.405       .  A
C1316      C1317   1.418       .  A
C1317      C1318   1.403       .  A
C1317      N1324   1.437       .  S
C1318      H1323   1.084       .  S
C1318      C1319   1.400       .  A
C1319      C1320   1.415       .  A
C1320      N1321   1.441       .  S
N1321      O1325   1.263       .  A
N1321      O1326   1.263       .  A
N1324      O1327   1.263       .  A
N1324      O1328   1.263       .  A
C1329      H1336   1.084       .  S
C1329      C1330   1.403       .  A
C1329      C1334   1.406       .  A
C1330      C1331   1.413       .  A
C1331      C1332   1.402       .  A
C1331      N1338   1.433       .  S
C1332      H1337   1.084       .  S
C1332      C1333   1.401       .  A
C1333      C1334   1.416       .  A
C1334      N1335   1.442       .  S
N1335      O1339   1.263       .  A
N1335      O1340   1.262       .  A
N1338      O1341   1.262       .  A
N1338      O1342   1.262       .  A
C1343      H1350   1.084       .  S
C1343      C1344   1.402       .  A
C1343      C1348   1.406       .  A
C1344      C1345   1.413       .  A
C1345      C1346   1.402       .  A
C1345      N1352   1.440       .  S
C1346      H1351   1.084       .  S
C1346      C1347   1.403       .  A
C1347      C1348   1.416       .  A
C1348      N1349   1.439       .  S
N1349      O1353   1.263       .  A
N1349      O1354   1.263       .  A
N1352      O1355   1.262       .  A
N1352      O1356   1.263       .  A
C1357      H1364   1.083       .  S
C1357      C1358   1.405       .  A
C1357      C1362   1.407       .  A
C1358      C1359   1.416       .  A
C1359      C1360   1.403       .  A
C1359      N1366   1.439       .  S
C1360      H1365   1.084       .  S
C1360      C1361   1.400       .  A
C1361      C1362   1.415       .  A
C1362      N1363   1.443       .  S
N1363      O1367   1.263       .  A
N1363      O1368   1.262       .  A
N1366      O1369   1.263       .  A
N1366      O1370   1.263       .  A
C1371      H1378   1.084       .  S
C1371      C1372   1.402       .  A
C1371      C1376   1.405       .  A
C1372      C1373   1.416       .  A
C1373      C1374   1.403       .  A
C1373      N1380   1.440       .  S
C1374      H1379   1.084       .  S
C1374      C1375   1.401       .  A
C1375      C1376   1.413       .  A
C1376      N1377   1.442       .  S
N1377      O1381   1.263       .  A
N1377      O1382   1.263       .  A
N1380      O1383   1.262       .  A
N1380      O1384   1.263       .  A
C1385      H1392   1.084       .  S
C1385      C1386   1.401       .  A
C1385      C1390   1.405       .  A
C1386      C1387   1.412       .  A
C1387      C1388   1.400       .  A
C1387      N1394   1.441       .  S
C1388      H1393   1.083       .  S
C1388      C1389   1.407       .  A
C1389      C1390   1.419       .  A
C1390      N1391   1.433       .  S
N1391      O1395   1.262       .  A
N1391      O1396   1.262       .  A
N1394      O1397   1.262       .  A
N1394      O1398   1.263       .  A
C1399      H1406   1.084       .  S
C1399      C1400   1.400       .  A
C1399      C1404   1.406       .  A
C1400      C1401   1.410       .  A
C1401      C1402   1.400       .  A
C1401      N1408   1.440       .  S
C1402      H1407   1.083       .  S
C1402      C1403   1.405       .  A
C1403      C1404   1.419       .  A
C1404      N1405   1.437       .  S
N1405      O1409   1.263       .  A
N1405      O1410   1.263       .  A
N1408      O1411   1.262       .  A
N1408      O1412   1.263       .  A
C1413      H1420   1.084       .  S
C1413      C1414   1.402       .  A
C1413      C1418   1.401       .  A
C1414      C1415   1.414       .  A
C1415      C1416   1.404       .  A
C1415      N1422   1.440       .  S
C1416      H1421   1.083       .  S
C1416      C1417   1.408       .  A
C1417      C1418   1.417       .  A
C1418      N1419   1.436       .  S
N1419      O1423   1.263       .  A
N1419      O1424   1.263       .  A
N1422      O1425   1.262       .  A
N1422      O1426   1.263       .  A
C1427      H1434   1.084       .  S
C1427      C1428   1.401       .  A
C1427      C1432   1.405       .  A
C1428      C1429   1.412       .  A
C1429      C1430   1.400       .  A
C1429      N1436   1.441       .  S
C1430      H1435   1.083       .  S
C1430      C1431   1.407       .  A
C1431      C1432   1.418       .  A
C1432      N1433   1.433       .  S
N1433      O1437   1.262       .  A
N1433      O1438   1.262       .  A
N1436      O1439   1.262       .  A
N1436      O1440   1.263       .  A
