geometry optimzed in LAMMPS
_audit_creation_date              2020-11-30 
_audit_creation_method            'lammps2cif' 
_symmetry_space_group_name_H-M    'P1' 
_symmetry_Int_Tables_number       1 
_symmetry_cell_setting            triclinic 
loop_ 
_symmetry_equiv_pos_as_xyz 
  x,y,z 
_cell_length_a                    71.7921625 
_cell_length_b                    71.74961641158166 
_cell_length_c                    52.16306337038308 
_cell_angle_alpha                 89.98225909263607 
_cell_angle_beta                  90.006016637194 
_cell_angle_gamma                 89.9256364953199 
loop_ 
_atom_site_label 
_atom_site_type_symbol 
_atom_site_fract_x 
_atom_site_fract_y 
_atom_site_fract_z 
_atom_site_charge 
N1          N  0.68923802  0.09599659  0.86253041    -0.25900
N2          N  0.69302704  0.11393856  0.86502818    -0.33700
C3          C  0.68483834  0.12338622  0.84584705     0.02500
C4          C  0.67561924  0.11079317  0.83034494     0.08500
C5          C  0.67877282  0.09352979  0.84137649    -0.04600
H6          H  0.68601064  0.13827225  0.84293931     0.09200
H7          H  0.67378576  0.08018673  0.83460471     0.10400
Cu8        Cu  0.71011784  0.12483791  0.89325491     0.44200
Cu9        Cu  0.69821588  0.07584005  0.88835753     0.42000
Cu10       Cu  0.72475860  0.09281318  0.94266655     0.43900
N11         N  0.72802842  0.13209239  0.92270599    -0.33300
N12         N  0.73279871  0.12056884  0.94129914    -0.27500
C13         C  0.74465529  0.12929540  0.95716892    -0.03600
C14         C  0.74789238  0.14721174  0.94797071     0.08600
C15         C  0.73697384  0.14836461  0.92599248     0.02400
H16         H  0.75051946  0.12277072  0.97398577     0.10100
H17         H  0.73602379  0.15982927  0.91263436     0.09100
N18         N  0.71740391  0.06507358  0.93767490    -0.34700
N19         N  0.70791415  0.05883109  0.91773898    -0.26900
C20         C  0.70599683  0.04023988  0.91985474    -0.02100
C21         C  0.71470600  0.03444479  0.94221872     0.06500
C22         C  0.72177688  0.05062676  0.95297926     0.04600
H23         H  0.69870760  0.03162846  0.90612388     0.09700
H24         H  0.72997025  0.05180040  0.97030477     0.08500
N25         N  0.61466484  0.16396632  0.62428021    -0.25900
N26         N  0.63013936  0.17393559  0.62479924    -0.33700
C27         C  0.63925288  0.17044178  0.64678694     0.02500
C28         C  0.62907762  0.15763642  0.66087597     0.08500
C29         C  0.61356520  0.15384313  0.64594824    -0.04600
H30         H  0.65251336  0.17655455  0.65186008     0.09200
H31         H  0.60215628  0.14460863  0.65059004     0.10400
Cu32       Cu  0.63867047  0.19169135  0.59568605     0.44200
Cu33       Cu  0.59560057  0.16466808  0.59434028     0.42000
Cu34       Cu  0.60987145  0.19308984  0.54007353     0.43900
N35         N  0.64487291  0.20765696  0.56366230    -0.33300
N36         N  0.63449956  0.20767590  0.54275316    -0.27500
C37         C  0.64236762  0.21879073  0.52505566    -0.03600
C38         C  0.65839548  0.22628732  0.53549066     0.08600
C39         C  0.65955976  0.21893831  0.55997698     0.02400
H40         H  0.63672832  0.22135815  0.50614469     0.10100
H41         H  0.67049475  0.22128424  0.57387465     0.09100
N42         N  0.58450671  0.17982086  0.54277575    -0.34700
N43         N  0.57903594  0.16953755  0.56238990    -0.26900
C44         C  0.56123725  0.16433380  0.55853433    -0.02100
C45         C  0.55528965  0.17174057  0.53534871     0.06500
C46         C  0.57045758  0.18146600  0.52601827     0.04600
H47         H  0.55317600  0.15611534  0.57190059     0.09700
H48         H  0.57101182  0.19000103  0.50894174     0.08500
N49         N  0.83092714  0.33463112  0.37085715    -0.25900
N50         N  0.82042200  0.31952153  0.37058345    -0.33700
C51         C  0.82269359  0.31075422  0.34800561     0.02500
C52         C  0.83520420  0.32086247  0.33324321     0.08500
C53         C  0.84006119  0.33592911  0.34846186    -0.04600
H54         H  0.81580919  0.29788144  0.34292331     0.09200
H55         H  0.84921991  0.34732564  0.34351586     0.10400
Cu56       Cu  0.80302901  0.31178009  0.40053608     0.44200
Cu57       Cu  0.83233570  0.35323834  0.40117977     0.42000
Cu58       Cu  0.80398303  0.34204126  0.45589070     0.43900
N59         N  0.78660096  0.30782623  0.43282630    -0.33300
N60         N  0.78744214  0.31856506  0.45338461    -0.27500
C61         C  0.77466584  0.31284029  0.47049367    -0.03600
C62         C  0.76515778  0.29794142  0.46004767     0.08600
C63         C  0.77305676  0.29512753  0.43616278     0.02400
H64         H  0.77178409  0.31970511  0.48853000     0.10100
H65         H  0.76893320  0.28493208  0.42198509     0.09100
N66         N  0.81966966  0.36608800  0.45313301    -0.34700
N67         N  0.83026564  0.37019565  0.43322476    -0.26900
C68         C  0.83818283  0.38694166  0.43712360    -0.02100
C69         C  0.83215672  0.39374971  0.46058436     0.06500
C70         C  0.82043448  0.38011370  0.47014489     0.04600
H71         H  0.84714773  0.39389206  0.42347893     0.09700
H72         H  0.81294862  0.38032193  0.48813464     0.08500
N73         N  0.89045331  0.28822199  0.11553889    -0.25900
N74         N  0.87309964  0.28252812  0.11263446    -0.33700
C75         C  0.86375352  0.28513461  0.13458001     0.02500
C76         C  0.87579813  0.29280151  0.15229598     0.08500
C77         C  0.89269266  0.29448813  0.13967611    -0.04600
H78         H  0.84926492  0.28156385  0.13745108     0.09200
H79         H  0.90547422  0.30028617  0.14721026     0.10400
Cu80       Cu  0.86286063  0.27107766  0.07938787     0.44200
Cu81       Cu  0.90937159  0.28796128  0.08557215     0.42000
Cu82       Cu  0.89349673  0.26680544  0.02516351     0.43900
N83         N  0.85567271  0.25735768  0.04624707    -0.33300
N84         N  0.86685503  0.25541047  0.02632871    -0.27500
C85         C  0.85827624  0.24477293  0.00866858    -0.03600
C86         C  0.84085085  0.23981126  0.01801898     0.08600
C87         C  0.83976492  0.24808951  0.04191216     0.02400
H88         H  0.86436835  0.24087004  0.99048381     0.10100
H89         H  0.82859007  0.24684896  0.05570775     0.09100
N90         N  0.91908768  0.27996893  0.03008009    -0.34700
N91         N  0.92464852  0.28756547  0.05187607    -0.26900
C92         C  0.94181636  0.29460651  0.04872861    -0.02100
C93         C  0.94750923  0.29124355  0.02379549     0.06500
C94         C  0.93267863  0.28196966  0.01251366     0.04600
H95         H  0.94957241  0.30158869  0.06366971     0.09700
H96         H  0.93202444  0.27648803  0.99322094     0.08500
N97         N  0.88723137  0.58620060  0.60195347    -0.25900
N98         N  0.88336620  0.60402807  0.59828944    -0.33700
C99         C  0.89019231  0.61402522  0.61787624     0.02500
C100        C  0.89860624  0.60195018  0.63491307     0.08500
C101        C  0.89644013  0.58438387  0.62431274    -0.04600
H102        H  0.88814761  0.62886481  0.62030861     0.09200
H103        H  0.90075558  0.57123443  0.63256512     0.10400
Cu104      Cu  0.86676317  0.61412172  0.56919657     0.44200
Cu105      Cu  0.87855498  0.56521353  0.57715377     0.42000
Cu106      Cu  0.84901188  0.58096315  0.52446556     0.43900
N107        N  0.84807860  0.62101964  0.54074452    -0.33300
N108        N  0.84178054  0.60887996  0.52382686    -0.27500
C109        C  0.82957718  0.61746905  0.50824232    -0.03600
C110        C  0.82802586  0.63586776  0.51594018     0.08600
C111        C  0.83993736  0.63761768  0.53662868     0.02400
H112        H  0.82190333  0.61064964  0.49306501     0.10100
H113        H  0.84245345  0.64998674  0.54796059     0.09100
N114        N  0.85634275  0.55342829  0.53073092    -0.34700
N115        N  0.86694575  0.54755842  0.54983278    -0.26900
C116        C  0.86823251  0.52885181  0.54867936    -0.02100
C117        C  0.85795204  0.52267070  0.52783193     0.06500
C118        C  0.85063657  0.53868873  0.51696777     0.04600
H119        H  0.87611029  0.52041944  0.56203134     0.09700
H120        H  0.84137542  0.53959585  0.50065720     0.08500
N121        N  0.94511467  0.65793983  0.84583035    -0.25900
N122        N  0.92835676  0.66553084  0.84611926    -0.33700
C123        C  0.91916070  0.66050585  0.82483303     0.02500
C124        C  0.93069466  0.64916294  0.81038617     0.08500
C125        C  0.94704295  0.64777946  0.82435410    -0.04600
H126        H  0.90514225  0.66496823  0.82014769     0.09200
H127        H  0.95966591  0.64052094  0.81888342     0.10400
Cu128      Cu  0.91938328  0.68314005  0.87478360     0.44200
Cu129      Cu  0.96455276  0.66304973  0.87408449     0.42000
Cu130      Cu  0.95116070  0.69443220  0.92651568     0.43900
N131        N  0.91312416  0.70130353  0.90415669    -0.33300
N132        N  0.92452067  0.70552510  0.92316652    -0.27500
C133        C  0.91605433  0.71796340  0.93858435    -0.03600
C134        C  0.89847730  0.72172951  0.92872821     0.08600
C135        C  0.89719946  0.71089387  0.90687034     0.02400
H136        H  0.92221831  0.72366740  0.95579150     0.10100
H137        H  0.88571881  0.71025574  0.89348272     0.09100
N138        N  0.97711708  0.68183534  0.92300942    -0.34700
N139        N  0.98185782  0.67074660  0.90382619    -0.26900
C140        C  0.99973162  0.66562960  0.90655413    -0.02100
C141        C  0.00662718  0.67379275  0.92855294     0.06500
C142        C  0.99190702  0.68393890  0.93857895     0.04600
H143        H  0.00713452  0.65662122  0.89340308     0.09700
H144        H  0.99207925  0.69266764  0.95548634     0.08500
N145        N  0.68905263  0.78605087  0.35336379    -0.25900
N146        N  0.70673836  0.78110069  0.35529091    -0.33700
C147        C  0.71567858  0.78582860  0.33361205     0.02500
C148        C  0.70297110  0.79397943  0.31711823     0.08500
C149        C  0.68620555  0.79384376  0.33022690    -0.04600
H150        H  0.73019409  0.78287856  0.32976233     0.09200
H151        H  0.67291085  0.79897176  0.32344723     0.10400
Cu152      Cu  0.71754266  0.76656274  0.38618117     0.44200
Cu153      Cu  0.66967857  0.78177638  0.38226346     0.42000
Cu154      Cu  0.68572633  0.75613434  0.43799063     0.43900
N155        N  0.72428457  0.74979144  0.41710887    -0.33300
N156        N  0.71269816  0.74610118  0.43610524    -0.27500
C157        C  0.72086429  0.73405735  0.45231451    -0.03600
C158        C  0.73843469  0.72979253  0.44298892     0.08600
C159        C  0.74011137  0.74010548  0.42064098     0.02400
H160        H  0.71431023  0.72866620  0.46943900     0.10100
H161        H  0.75163134  0.74001737  0.40728694     0.09100
N162        N  0.65903280  0.76663425  0.43417036    -0.34700
N163        N  0.65322362  0.77614336  0.41400831    -0.26900
C164        C  0.63538143  0.78115902  0.41768669    -0.02100
C165        C  0.62956547  0.77438317  0.44128503     0.06500
C166        C  0.64501079  0.76519362  0.45110309     0.04600
H167        H  0.62741635  0.78940996  0.40423871     0.09700
H168        H  0.64602590  0.75771789  0.46904644     0.08500
N169        N  0.73690808  0.84229750  0.09744616    -0.25900
N170        N  0.74502941  0.82586089  0.09490034    -0.33700
C171        C  0.74257914  0.81600055  0.11655282     0.02500
C172        C  0.73246598  0.82674851  0.13370095     0.08500
C173        C  0.72907745  0.84331997  0.12082332    -0.04600
H174        H  0.74804069  0.80212445  0.11962103     0.09200
H175        H  0.72210301  0.85555501  0.12823097     0.10400
Cu176      Cu  0.76059463  0.81811118  0.06321967     0.44200
Cu177      Cu  0.73774026  0.86304996  0.06967398     0.42000
Cu178      Cu  0.76564418  0.85270736  0.01350654     0.43900
N179        N  0.77782332  0.81478473  0.03171615    -0.33300
N180        N  0.77969508  0.82740884  0.01344992    -0.27500
C181        C  0.79249805  0.82142180  0.99650006    -0.03600
C182        C  0.79910384  0.80424776  0.00460249     0.08600
C183        C  0.78943442  0.80048881  0.02698179     0.02400
H184        H  0.79712604  0.82931842  0.98002345     0.10100
H185        H  0.79082033  0.78833701  0.03911417     0.09100
N186        N  0.75093714  0.87737405  0.01846950    -0.34700
N187        N  0.74077911  0.88122498  0.03892720    -0.26900
C188        C  0.73327962  0.89831576  0.03617438    -0.02100
C189        C  0.73901267  0.90562979  0.01284538     0.06500
C190        C  0.75018595  0.89188837  0.00219903     0.04600
H191        H  0.72459322  0.90502565  0.05038510     0.09700
H192        H  0.75715266  0.89226538  0.98382628     0.08500
N193        N  0.22741994  0.63693063  0.36256298    -0.25900
N194        N  0.23821747  0.65180194  0.36337189    -0.33700
C195        C  0.23660729  0.66124044  0.34131016     0.02500
C196        C  0.22418585  0.65184643  0.32576997     0.08500
C197        C  0.21860358  0.63648667  0.33986872    -0.04600
H198        H  0.24379565  0.67413038  0.33714523     0.09200
H199        H  0.20910324  0.62560690  0.33398977     0.10400
Cu200      Cu  0.25458037  0.65891100  0.39409979     0.44200
Cu201      Cu  0.22532020  0.61804381  0.39224813     0.42000
Cu202      Cu  0.25111466  0.63019777  0.44997287     0.43900
N203        N  0.26930235  0.66389213  0.42711300    -0.33300
N204        N  0.26802784  0.65341992  0.44784598    -0.27500
C205        C  0.27980016  0.65997794  0.46570183    -0.03600
C206        C  0.28884868  0.67536374  0.45563826     0.08600
C207        C  0.28181911  0.67743891  0.43114369     0.02400
H208        H  0.28167602  0.65390799  0.48451165     0.10100
H209        H  0.28588404  0.68765942  0.41696380     0.09100
N210        N  0.23549191  0.60622300  0.44579342    -0.34700
N211        N  0.22628019  0.60168865  0.42477203    -0.26900
C212        C  0.21863646  0.58476370  0.42790989    -0.02100
C213        C  0.22331410  0.57829924  0.45207100     0.06500
C214        C  0.23395701  0.59231849  0.46287237     0.04600
H215        H  0.21084481  0.57747067  0.41328009     0.09700
H216        H  0.24032565  0.59239860  0.48166187     0.08500
N217        N  0.18218046  0.68586393  0.10504435    -0.25900
N218        N  0.19663572  0.69715119  0.10708161    -0.33700
C219        C  0.20264652  0.69715213  0.13140887     0.02500
C220        C  0.19152976  0.68518280  0.14528880     0.08500
C221        C  0.17873407  0.67814206  0.12804863    -0.04600
H222        H  0.21452031  0.70494822  0.13832179     0.09200
H223        H  0.16769512  0.66828473  0.13193588     0.10400
Cu224      Cu  0.20822776  0.71154960  0.07692976     0.44200
Cu225      Cu  0.16775077  0.68210254  0.07122209     0.42000
Cu226      Cu  0.18720332  0.70621473  0.01536154     0.43900
N227        N  0.21819108  0.72450227  0.04450257    -0.33300
N228        N  0.21065376  0.72248575  0.02160302    -0.27500
C229        C  0.22012522  0.73302947  0.00473287    -0.03600
C230        C  0.23432324  0.74217842  0.01772497     0.08600
C231        C  0.23258710  0.73635594  0.04293947     0.02400
H232        H  0.21686274  0.73389384  0.98453228     0.10100
H233        H  0.24077360  0.74078021  0.05922957     0.09100
N234        N  0.16252787  0.69116107  0.01520839    -0.34700
N235        N  0.15547070  0.68258711  0.03542584    -0.26900
C236        C  0.13872140  0.67557505  0.02926975    -0.02100
C237        C  0.13497552  0.67992629  0.00393075     0.06500
C238        C  0.15044623  0.68976526  0.99563392     0.04600
H239        H  0.12954425  0.66871872  0.04273454     0.09700
H240        H  0.15264203  0.69592000  0.97695667     0.08500
N241        N  0.39201924  0.87741972  0.86202677    -0.25900
N242        N  0.38728468  0.85984532  0.86602181    -0.33700
C243        C  0.39354727  0.84937588  0.84653490     0.02500
C244        C  0.40259774  0.86084682  0.82930485     0.08500
C245        C  0.40132308  0.87857204  0.83967341    -0.04600
H246        H  0.39102352  0.83457949  0.84459045     0.09200
H247        H  0.40664923  0.89137391  0.83154381     0.10400
Cu248      Cu  0.37106702  0.85046698  0.89609621     0.44200
Cu249      Cu  0.38506756  0.89908839  0.88665047     0.42000
Cu250      Cu  0.35599985  0.88476819  0.94034025     0.43900
N251        N  0.35217093  0.84480460  0.92492761    -0.33300
N252        N  0.34654721  0.85761581  0.94134159    -0.27500
C253        C  0.33312119  0.85041689  0.95628418    -0.03600
C254        C  0.33007042  0.83213642  0.94884635     0.08600
C255        C  0.34249658  0.82904551  0.92895503     0.02400
H256        H  0.32586781  0.85810409  0.97106848     0.10100
H257        H  0.34376422  0.81660997  0.91736605     0.09100
N258        N  0.36460571  0.91181827  0.93389431    -0.34700
N259        N  0.37514250  0.91724774  0.91450454    -0.26900
C260        C  0.37738982  0.93585808  0.91581264    -0.02100
C261        C  0.36765154  0.94239587  0.93693996     0.06500
C262        C  0.35980554  0.92672759  0.94792344     0.04600
H263        H  0.38507225  0.94404429  0.90198388     0.09700
H264        H  0.35116971  0.92613635  0.96489405     0.08500
N265        N  0.44987043  0.80277905  0.61915416    -0.25900
N266        N  0.43198384  0.79847814  0.61855843    -0.33700
C267        C  0.42396069  0.80381533  0.64055292     0.02500
C268        C  0.43739421  0.81181063  0.65600117     0.08500
C269        C  0.45369520  0.81101025  0.64175385    -0.04600
H270        H  0.40932897  0.80204457  0.64482553     0.09200
H271        H  0.46738060  0.81570496  0.64751418     0.10400
Cu272      Cu  0.41884189  0.78485687  0.58889897     0.44200
Cu273      Cu  0.46795992  0.79702953  0.58908582     0.42000
Cu274      Cu  0.44604761  0.77532242  0.53344608     0.43900
N275        N  0.40890876  0.76967525  0.55832994    -0.33300
N276        N  0.41893684  0.76632390  0.53764922    -0.27500
C277        C  0.40904961  0.75560140  0.52156506    -0.03600
C278        C  0.39192754  0.75193023  0.53273396     0.08600
C279        C  0.39235351  0.76113531  0.55607721     0.02400
H280        H  0.41404875  0.75086673  0.50312746     0.10100
H281        H  0.38170247  0.76121501  0.57073418     0.09100
N282        N  0.47383942  0.78253272  0.53530703    -0.34700
N283        N  0.48193838  0.79012292  0.55552038    -0.26900
C284        C  0.50020877  0.79216022  0.55060720    -0.02100
C285        C  0.50378013  0.78550144  0.52613853     0.06500
C286        C  0.48668668  0.77954216  0.51705610     0.04600
H287        H  0.51019879  0.79764234  0.56416026     0.09700
H288        H  0.48370742  0.77344709  0.49854735     0.08500
N289        N  0.13288381  0.31796951  0.85721840    -0.25900
N290        N  0.15004415  0.31131538  0.85660673    -0.33700
C291        C  0.15872194  0.31783610  0.83565415     0.02500
C292        C  0.14640015  0.32910077  0.82236646     0.08500
C293        C  0.13011344  0.32881340  0.83653844    -0.04600
H294        H  0.17284821  0.31432381  0.83026422     0.09200
H295        H  0.11726695  0.33609385  0.83233773     0.10400
Cu296      Cu  0.16084879  0.29352485  0.88397408     0.44200
Cu297      Cu  0.11429091  0.31227047  0.88642234     0.42000
Cu298      Cu  0.13186011  0.28413359  0.93909946     0.43900
N299        N  0.16866933  0.27617153  0.91368098    -0.33300
N300        N  0.15826965  0.27291917  0.93409296    -0.27500
C301        C  0.16736465  0.26103631  0.94964357    -0.03600
C302        C  0.18426542  0.25654653  0.93837370     0.08600
C303        C  0.18458791  0.26641913  0.91559787     0.02400
H304        H  0.16186001  0.25572855  0.96751116     0.10100
H305        H  0.19563083  0.26665635  0.90149471     0.09100
N306        N  0.10514952  0.29519100  0.93763700    -0.34700
N307        N  0.09871835  0.30521595  0.91830375    -0.26900
C308        C  0.08070908  0.30930374  0.92256106    -0.02100
C309        C  0.07545920  0.30144096  0.94570242     0.06500
C310        C  0.09138388  0.29265569  0.95473851     0.04600
H311        H  0.07194834  0.31685050  0.90925092     0.09700
H312        H  0.09288463  0.28479840  0.97231320     0.08500
N313        N  0.18593265  0.38924745  0.61022039    -0.25900
N314        N  0.19194727  0.37196805  0.60730694    -0.33700
C315        C  0.18812453  0.36217120  0.62853861     0.02500
C316        C  0.17935407  0.37380771  0.64589360     0.08500
C317        C  0.17808699  0.39089137  0.63356033    -0.04600
H318        H  0.19168214  0.34764115  0.63113165     0.09200
H319        H  0.17253583  0.40373763  0.64128610     0.10400
Cu320      Cu  0.20614884  0.36225322  0.57566509     0.44200
Cu321      Cu  0.18978059  0.40974096  0.58266134     0.42000
Cu322      Cu  0.21460659  0.39390607  0.52484878     0.43900
N323        N  0.22084182  0.35496092  0.54323853    -0.33300
N324        N  0.22366965  0.36652608  0.52394858    -0.27500
C325        C  0.23425917  0.35797970  0.50620431    -0.03600
C326        C  0.23842409  0.34024450  0.51500064     0.08600
C327        C  0.22969054  0.33882431  0.53853668     0.02400
H328        H  0.23938722  0.36452915  0.48890873     0.10100
H329        H  0.23010617  0.32711241  0.55159264     0.09100
N330        N  0.20567784  0.42094270  0.53131760    -0.34700
N331        N  0.19671571  0.42677941  0.55196440    -0.26900
C332        C  0.19353558  0.44520132  0.54976815    -0.02100
C333        C  0.20084281  0.45123415  0.52660529     0.06500
C334        C  0.20847155  0.43544098  0.51555550     0.04600
H335        H  0.18641456  0.45350708  0.56402828     0.09700
H336        H  0.21604378  0.43455704  0.49767531     0.08500
N337        N  0.34513858  0.12942486  0.09617056    -0.25900
N338        N  0.33129361  0.14150816  0.09730603    -0.33700
C339        C  0.33244537  0.15117026  0.11920443     0.02500
C340        C  0.34785241  0.14496914  0.13262123     0.08500
C341        C  0.35553573  0.13102645  0.11753313    -0.04600
H342        H  0.32281120  0.16204964  0.12474206     0.09200
H343        H  0.36802762  0.12305263  0.12136186     0.10400
Cu344      Cu  0.31259921  0.14588956  0.06812209     0.44200
Cu345      Cu  0.34890509  0.11223622  0.06477649     0.42000
Cu346      Cu  0.32135262  0.12433311  0.00736574     0.43900
N347        N  0.29863211  0.15299050  0.03517282    -0.33300
N348        N  0.30244254  0.14597922  0.01234826    -0.27500
C349        C  0.29174653  0.15461218  0.99475301    -0.03600
C350        C  0.28061967  0.16746346  0.00735649     0.08600
C351        C  0.28534610  0.16603787  0.03290022     0.02400
H352        H  0.29182969  0.15155074  0.97444722     0.10100
H353        H  0.27985093  0.17418570  0.04863516     0.09100
N354        N  0.33779681  0.10060457  0.01102291    -0.34700
N355        N  0.34735459  0.09620525  0.03187143    -0.26900
C356        C  0.35461542  0.07907756  0.02901352    -0.02100
C357        C  0.34946783  0.07233555  0.00524289     0.06500
C358        C  0.33889309  0.08637825  0.99428073     0.04600
H359        H  0.36265180  0.07188407  0.04351509     0.09700
H360        H  0.33164629  0.08587843  0.97610785     0.08500
N361        N  0.38450088  0.19762150  0.34850894    -0.25900
N362        N  0.36946095  0.20805365  0.34579205    -0.33700
C363        C  0.36256445  0.20553565  0.32211166     0.02500
C364        C  0.37382816  0.19288544  0.30931012     0.08500
C365        C  0.38760254  0.18818579  0.32670463    -0.04600
H366        H  0.35033468  0.21255449  0.31478078     0.09200
H367        H  0.39884680  0.17833111  0.32403512     0.10400
Cu368      Cu  0.35867608  0.22472018  0.37462771     0.44200
Cu369      Cu  0.39990893  0.19621653  0.38171657     0.42000
Cu370      Cu  0.38066627  0.21959975  0.43680221     0.43900
N371        N  0.34961326  0.23819307  0.40746431    -0.33300
N372        N  0.35717511  0.23566607  0.43032237    -0.27500
C373        C  0.34748440  0.24546549  0.44777048    -0.03600
C374        C  0.33328901  0.25475292  0.43522478     0.08600
C375        C  0.33506029  0.24990019  0.40969813     0.02400
H376        H  0.35065218  0.24592725  0.46803859     0.10100
H377        H  0.32614826  0.25416438  0.39402518     0.09100
N378        N  0.40540919  0.20479014  0.43748083    -0.34700
N379        N  0.41248081  0.19638421  0.41717023    -0.26900
C380        C  0.42890369  0.18868445  0.42344871    -0.02100
C381        C  0.43239743  0.19243041  0.44901221     0.06500
C382        C  0.41718243  0.20268610  0.45729737     0.04600
H383        H  0.43786558  0.18141428  0.41010414     0.09700
H384        H  0.41482793  0.20831032  0.47625779     0.08500
C385        C  0.36724985  0.14715571  0.20007252     0.14100
C386        C  0.36427459  0.16598403  0.20606892     0.01000
C387        C  0.35722916  0.17810162  0.18736059     0.16000
C388        C  0.35251632  0.17135658  0.16316007     0.25400
C389        C  0.35463485  0.15229653  0.15736482    -0.40900
C390        C  0.36242896  0.14031183  0.17586038     0.32500
C391        C  0.36695402  0.17271211  0.23243580     0.01100
F392        F  0.35462101  0.19643893  0.19274540    -0.13200
F393        F  0.36437651  0.12181652  0.17108736    -0.13700
C394        C  0.38485602  0.17448042  0.24284850     0.16000
C395        C  0.38715632  0.18102915  0.26789230     0.25400
C396        C  0.37150958  0.18576680  0.28290039    -0.40800
C397        C  0.35357417  0.18369503  0.27237372     0.32400
C398        C  0.35135716  0.17735322  0.24729428     0.14100
F399        F  0.40008658  0.17023773  0.22855324    -0.13200
F400        F  0.33811393  0.18723715  0.28653880    -0.13700
F401        F  0.40469840  0.18324621  0.27709236    -0.16000
F402        F  0.33391870  0.17543759  0.23755622    -0.14600
F403        F  0.37393920  0.13525211  0.21810866    -0.14600
F404        F  0.34589384  0.18352208  0.14541507    -0.16000
C405        C  0.27809778  0.30603528  0.50730657     0.14100
C406        C  0.27732970  0.30210434  0.48091180     0.01000
C407        C  0.26322794  0.31034332  0.46594979     0.16000
C408        C  0.25050907  0.32273607  0.47703733     0.25400
C409        C  0.25138998  0.32671549  0.50337175    -0.40900
C410        C  0.26511410  0.31805840  0.51848141     0.32500
C411        C  0.29150071  0.28981185  0.46894705     0.01100
F412        F  0.26166289  0.30623684  0.44063178    -0.13200
F413        F  0.26651326  0.32189823  0.54389464    -0.13700
C414        C  0.29496818  0.27190373  0.47889060     0.16000
C415        C  0.30876069  0.26059857  0.46809298     0.25400
C416        C  0.31895321  0.26679922  0.44676857    -0.40800
C417        C  0.31536398  0.28455183  0.43657029     0.32400
C418        C  0.30192415  0.29607541  0.44778048     0.14100
F419        F  0.28477057  0.26522244  0.49878777    -0.13200
F420        F  0.32533675  0.29098281  0.41630453    -0.13700
F421        F  0.31179382  0.24335595  0.47799754    -0.16000
F422        F  0.29944732  0.31355887  0.43839389    -0.14600
F423        F  0.29184240  0.29875652  0.52214683    -0.14600
F424        F  0.23710300  0.33057023  0.46214904    -0.16000
C425        C  0.22221966  0.21984031  0.94069911     0.14100
C426        C  0.22634748  0.21920299  0.96704520     0.01000
C427        C  0.21665752  0.23111932  0.98385080     0.16000
C428        C  0.20280864  0.24306589  0.97459186     0.25400
C429        C  0.19875405  0.24374894  0.94823934    -0.40900
C430        C  0.20870708  0.23212901  0.93135574     0.32500
C431        C  0.24032450  0.20577875  0.97707831     0.01100
F432        F  0.22080114  0.23141941  0.00925002    -0.13200
F433        F  0.20486800  0.23209454  0.90587308    -0.13700
C434        C  0.25827906  0.20466761  0.96626206     0.16000
C435        C  0.27123597  0.19173991  0.97555582     0.25400
C436        C  0.26667220  0.18019958  0.99634556    -0.40800
C437        C  0.24887380  0.18142518  0.00736119     0.32400
C438        C  0.23570144  0.19383773  0.99751737     0.14100
F439        F  0.26346162  0.21644269  0.94717835    -0.13200
F440        F  0.24409366  0.17026920  0.02733432    -0.13700
F441        F  0.28849874  0.19103646  0.96496609    -0.16000
F442        F  0.21828920  0.19392961  0.00768275    -0.14600
F443        F  0.23084741  0.20813077  0.92404037    -0.14600
F444        F  0.19373223  0.25433182  0.99136859    -0.16000
C445        C  0.15270273  0.37220344  0.70874366     0.14100
C446        C  0.16341806  0.35939125  0.72289098     0.01000
C447        C  0.17934518  0.35149684  0.71158298     0.16000
C448        C  0.18463511  0.35645411  0.68680627     0.25400
C449        C  0.17386388  0.36910986  0.67246025    -0.40900
C450        C  0.15784044  0.37696896  0.68367380     0.32500
C451        C  0.15807331  0.35383870  0.74925249     0.01100
F452        F  0.18968755  0.33866465  0.72441866    -0.13200
F453        F  0.14686884  0.38886839  0.67018038    -0.13700
C454        C  0.14038811  0.34624551  0.75425665     0.16000
C455        C  0.13626641  0.33890240  0.77844602     0.25400
C456        C  0.14989235  0.33870801  0.79782157    -0.40800
C457        C  0.16728742  0.34698718  0.79312257     0.32400
C458        C  0.17124856  0.35469359  0.76917298     0.14100
F459        F  0.12745895  0.34496317  0.73534471    -0.13200
F460        F  0.18049067  0.34763571  0.81174042    -0.13700
F461        F  0.11936179  0.33093858  0.78236636    -0.16000
F462        F  0.18812928  0.36273190  0.76526733    -0.14600
F463        F  0.13735577  0.38021067  0.71925540    -0.14600
F464        F  0.20059514  0.34911756  0.67714464    -0.16000
C465        C  0.37835954  0.99265975  0.95398742     0.14100
C466        C  0.36140002  0.99839705  0.96490048     0.01000
C467        C  0.34641670  0.98587407  0.96581725     0.16000
C468        C  0.34839133  0.96779601  0.95633784     0.25400
C469        C  0.36543762  0.96186603  0.94575857    -0.40900
C470        C  0.38035798  0.97453651  0.94439908     0.32500
C471        C  0.35916671  0.01740737  0.97539657     0.01100
F472        F  0.32973595  0.99127198  0.97561789    -0.13200
F473        F  0.39707880  0.96919466  0.93470567    -0.13700
C474        C  0.36082184  0.03304794  0.95935465     0.16000
C475        C  0.35759106  0.05095071  0.96902345     0.25400
C476        C  0.35292814  0.05347659  0.99496885    -0.40800
C477        C  0.35145202  0.03780310  0.01105458     0.32400
C478        C  0.35452397  0.01992665  0.00132897     0.14100
F479        F  0.36513401  0.03092600  0.93418288    -0.13200
F480        F  0.34634467  0.03970359  0.03598136    -0.13700
F481        F  0.35927792  0.06583274  0.95311984    -0.16000
F482        F  0.35292145  0.00502220  0.01723089    -0.14600
F483        F  0.39313005  0.00444898  0.95329512    -0.14600
F484        F  0.33343127  0.95625110  0.95696222    -0.16000
C485        C  0.44059653  0.84271547  0.71489577     0.14100
C486        C  0.42727565  0.83443118  0.73095065     0.01000
C487        C  0.41780980  0.81844945  0.72266208     0.16000
C488        C  0.42143846  0.81089808  0.69855834     0.25400
C489        C  0.43456604  0.81927715  0.68214923    -0.40900
C490        C  0.44430652  0.83513964  0.69067741     0.32500
C491        C  0.42293433  0.84234368  0.75635382     0.01100
F492        F  0.40474120  0.81033910  0.73781562    -0.13200
F493        F  0.45692111  0.84370044  0.67530102    -0.13700
C494        C  0.41391723  0.85965770  0.75841349     0.16000
C495        C  0.40781023  0.86606862  0.78232194     0.25400
C496        C  0.41062589  0.85518356  0.80444057    -0.40800
C497        C  0.42020314  0.83813596  0.80236733     0.32400
C498        C  0.42631910  0.83179262  0.77852032     0.14100
F499        F  0.41013860  0.86984741  0.73709282    -0.13200
F500        F  0.42358513  0.82755175  0.82344481    -0.13700
F501        F  0.39812725  0.88230747  0.78356247    -0.16000
F502        F  0.43524960  0.81513629  0.77693180    -0.14600
F503        F  0.44997888  0.85811836  0.72270530    -0.14600
F504        F  0.41226283  0.79518246  0.69150512    -0.16000
C505        C  0.28458315  0.81365103  0.97575754     0.14100
C506        C  0.28830259  0.79445914  0.97733730     0.01000
C507        C  0.30569558  0.78769412  0.96917321     0.16000
C508        C  0.31926257  0.79992284  0.95992376     0.25400
C509        C  0.31567106  0.81918316  0.95860125    -0.40900
C510        C  0.29812805  0.82591068  0.96645363     0.32500
C511        C  0.27425333  0.78145480  0.98790113     0.01100
F512        F  0.30949721  0.76915880  0.97001912    -0.13200
F513        F  0.29386127  0.84429537  0.96455615    -0.13700
C514        C  0.25660241  0.77978248  0.97651877     0.16000
C515        C  0.24359919  0.76706800  0.98617115     0.25400
C516        C  0.24806414  0.75567782  0.00733648    -0.40800
C517        C  0.26577601  0.75750563  0.01874389     0.32400
C518        C  0.27863967  0.77035649  0.00923381     0.14100
F519        F  0.25204400  0.79027736  0.95577541    -0.13200
F520        F  0.27095576  0.74653278  0.03871024    -0.13700
F521        F  0.22652199  0.76626707  0.97507992    -0.16000
F522        F  0.29542738  0.77205702  0.02100310    -0.14600
F523        F  0.26792361  0.82057271  0.98361687    -0.14600
F524        F  0.33608142  0.79292818  0.95290103    -0.16000
C525        C  0.22753971  0.53358914  0.49013455     0.14100
C526        C  0.21041147  0.52499318  0.48490895     0.01000
C527        C  0.19755891  0.53387410  0.46870833     0.16000
C528        C  0.20172119  0.55123105  0.45799924     0.25400
C529        C  0.21884053  0.55995645  0.46335059    -0.40900
C530        C  0.23174916  0.55090914  0.47943898     0.32500
C531        C  0.20632552  0.50644043  0.49568893     0.01100
F532        F  0.18088145  0.52580551  0.46352347    -0.13200
F533        F  0.24875926  0.55843653  0.48405894    -0.13700
C534        C  0.20552862  0.50381597  0.52233447     0.16000
C535        C  0.20312434  0.48595325  0.53254125     0.25400
C536        C  0.20150229  0.47042224  0.51615963    -0.40800
C537        C  0.20151693  0.47329526  0.48943306     0.32400
C538        C  0.20402064  0.49112357  0.47932412     0.14100
F539        F  0.20735197  0.51856427  0.53845120    -0.13200
F540        F  0.19905963  0.45886127  0.47297034    -0.13700
F541        F  0.20325283  0.48384680  0.55839462    -0.16000
F542        F  0.20484175  0.49335236  0.45349447    -0.14600
F543        F  0.24043345  0.52491427  0.50501014    -0.14600
F544        F  0.18881138  0.55966078  0.44290808    -0.16000
C545        C  0.33148970  0.68860378  0.49398370     0.14100
C546        C  0.33237056  0.70790320  0.48964777     0.01000
C547        C  0.31874275  0.71650391  0.47434354     0.16000
C548        C  0.30446371  0.70594051  0.46346336     0.25400
C549        C  0.30360586  0.68659849  0.46772464    -0.40900
C550        C  0.31722976  0.67802503  0.48310907     0.32500
C551        C  0.34758772  0.71902515  0.50093621     0.01100
F552        F  0.31945413  0.73509879  0.46958056    -0.13200
F553        F  0.31713704  0.65931178  0.48694949    -0.13700
C554        C  0.36622193  0.71469134  0.49536014     0.16000
C555        C  0.38063897  0.72518789  0.50599851     0.25400
C556        C  0.37666061  0.74041641  0.52215126    -0.40800
C557        C  0.35794007  0.74463412  0.52783369     0.32400
C558        C  0.34355259  0.73399369  0.51734933     0.14100
F559        F  0.37045735  0.70041546  0.47928400    -0.13200
F560        F  0.35345306  0.75935006  0.54296965    -0.13700
F561        F  0.39847614  0.72011615  0.50089917    -0.16000
F562        F  0.32563713  0.73822467  0.52337340    -0.14600
F563        F  0.34441654  0.68001076  0.50888626    -0.14600
F564        F  0.29130464  0.71469713  0.44913647    -0.16000
C565        C  0.19466158  0.65836151  0.26643658     0.14100
C566        C  0.20737455  0.66692028  0.24983269     0.01000
C567        C  0.22555769  0.67063131  0.25814366     0.16000
C568        C  0.23106526  0.66568176  0.28285755     0.25400
C569        C  0.21835946  0.65706941  0.29965649    -0.40900
C570        C  0.20007288  0.65351768  0.29125371     0.32500
C571        C  0.20186887  0.67155755  0.22352118     0.01100
F572        F  0.23809590  0.67862109  0.24204999    -0.13200
F573        F  0.18728882  0.64580473  0.30720540    -0.13700
C574        C  0.19991367  0.69024253  0.21612080     0.16000
C575        C  0.19593402  0.69466161  0.19066349     0.25400
C576        C  0.19378816  0.68041861  0.17243537    -0.40800
C577        C  0.19516446  0.66169458  0.18004781     0.32400
C578        C  0.19927794  0.65729298  0.20549249     0.14100
F579        F  0.20200679  0.70414599  0.23353905    -0.13200
F580        F  0.19355988  0.64774795  0.16260499    -0.13700
F581        F  0.19413079  0.71282737  0.18377262    -0.16000
F582        F  0.20149010  0.63917116  0.21238190    -0.14600
F583        F  0.17695955  0.65489799  0.25863041    -0.14600
F584        F  0.24900019  0.66871762  0.28996111    -0.16000
C585        C  0.59151388  0.77823082  0.49167410     0.14100
C586        C  0.57553775  0.78030209  0.47645024     0.01000
C587        C  0.57731085  0.78056438  0.44967147     0.16000
C588        C  0.59481183  0.77861297  0.43821376     0.25400
C589        C  0.61094478  0.77651051  0.45339731    -0.40900
C590        C  0.60905492  0.77642963  0.48031930     0.32500
C591        C  0.55700159  0.78192538  0.48856910     0.01100
F592        F  0.56205320  0.78283839  0.43459590    -0.13200
F593        F  0.62416525  0.77502927  0.49582818    -0.13700
C594        C  0.55301602  0.79686314  0.50506100     0.16000
C595        C  0.53567067  0.79811487  0.51711347     0.25400
C596        C  0.52200321  0.78439482  0.51291154    -0.40800
C597        C  0.52600163  0.76952055  0.49613664     0.34800
C598        C  0.54334990  0.76832684  0.48408264     0.14100
F599        F  0.56587898  0.81038648  0.50921703    -0.13200
F600        F  0.51343352  0.75571314  0.49209533    -0.13700
F601        F  0.53212600  0.81301392  0.53238742    -0.16000
F602        F  0.54704073  0.75357217  0.46858332    -0.14600
F603        F  0.59007886  0.77770012  0.51762457    -0.14600
F604        F  0.59578801  0.77828221  0.41224309    -0.16000
C605        C  0.69805244  0.80021623  0.24537503     0.14100
C606        C  0.71428233  0.81025490  0.23942978     0.01000
C607        C  0.72636927  0.81558721  0.25931289     0.16000
C608        C  0.72254205  0.81051284  0.28466516     0.25400
C609        C  0.70645728  0.80020888  0.29056530    -0.40900
C610        C  0.69411623  0.79530788  0.27075592     0.32500
C611        C  0.71891211  0.81456194  0.21240774     0.01100
F612        F  0.74184287  0.82578489  0.25414981    -0.13200
F613        F  0.67871265  0.78497785  0.27578104    -0.13700
C614        C  0.70680941  0.82536892  0.19733354     0.16000
C615        C  0.71109947  0.82915819  0.17168817     0.25400
C616        C  0.72761221  0.82220830  0.16063957    -0.40800
C617        C  0.73964375  0.81125509  0.17579666     0.32400
C618        C  0.73533392  0.80751944  0.20142782     0.14100
F619        F  0.69091279  0.83243915  0.20756944    -0.13200
F620        F  0.75587439  0.80455668  0.16612977    -0.13700
F621        F  0.69886045  0.83928792  0.15754687    -0.16000
F622        F  0.74713160  0.79681634  0.21550826    -0.14600
F623        F  0.68637513  0.79455547  0.22644664    -0.14600
F624        F  0.73441493  0.81589907  0.30351676    -0.16000
C625        C  0.04744711  0.67069979  0.97419819     0.14100
C626        C  0.06262764  0.67159895  0.95720944     0.01000
C627        C  0.05927748  0.67260819  0.93070838     0.16000
C628        C  0.04105081  0.67315780  0.92137077     0.25400
C629        C  0.02585873  0.67264575  0.93839745    -0.40900
C630        C  0.02921000  0.67122750  0.96486681     0.32500
C631        C  0.08185216  0.67271339  0.96729347     0.01100
F632        F  0.07368837  0.67323478  0.91386862    -0.13200
F633        F  0.01483255  0.67016425  0.98170701    -0.13700
C634        C  0.08874907  0.65897863  0.98398978     0.16000
C635        C  0.10626297  0.66104199  0.99535866     0.25400
C636        C  0.11723207  0.67685304  0.99009898    -0.40800
C637        C  0.11055815  0.69022099  0.97257367     0.32400
C638        C  0.09302599  0.68817949  0.96136323     0.14100
F639        F  0.07845347  0.64360624  0.98939224    -0.13200
F640        F  0.12043871  0.70587866  0.96735661    -0.13700
F641        F  0.11248333  0.64752150  0.01144487    -0.16000
F642        F  0.08656426  0.70184410  0.94567474    -0.14600
F643        F  0.05028093  0.66991405  0.99991462    -0.14600
F644        F  0.03830021  0.67496583  0.89573838    -0.16000
C645        C  0.87555206  0.76279484  0.96213586     0.14100
C646        C  0.85658668  0.75873868  0.95874266     0.01000
C647        C  0.85142137  0.74268745  0.94517000     0.16000
C648        C  0.86501541  0.73064292  0.93549572     0.25400
C649        C  0.88409130  0.73454906  0.93901420    -0.40900
C650        C  0.88920680  0.75085594  0.95228437     0.32500
C651        C  0.84215773  0.77080048  0.97029036     0.01100
F652        F  0.83315571  0.73836990  0.94198915    -0.13200
F653        F  0.90739261  0.75553679  0.95522009    -0.13700
C654        C  0.82938969  0.78043708  0.95476490     0.16000
C655        C  0.81547765  0.79147781  0.96588087     0.25400
C656        C  0.81398255  0.79283669  0.99273297    -0.40800
C657        C  0.82684234  0.78315711  0.00819761     0.32400
C658        C  0.84083658  0.77230322  0.99704592     0.14100
F659        F  0.83045505  0.77917775  0.92883237    -0.13200
F660        F  0.82617066  0.78450758  0.03413524    -0.13700
F661        F  0.80314820  0.80037659  0.95038369    -0.16000
F662        F  0.85294723  0.76295865  0.01239228    -0.14600
F663        F  0.88082464  0.77845821  0.97479153    -0.14600
F664        F  0.85941708  0.71481229  0.92354029    -0.16000
C665        C  0.78403237  0.70616015  0.46045039     0.14100
C666        C  0.77772229  0.69055116  0.47407315     0.01000
C667        C  0.75855592  0.68774682  0.47735334     0.16000
C668        C  0.74577141  0.70041091  0.46712635     0.25400
C669        C  0.75199174  0.71627801  0.45368790    -0.40900
C670        C  0.77129159  0.71898640  0.45041173     0.32500
C671        C  0.79109065  0.67703174  0.48474627     0.01100
F672        F  0.75223138  0.67248260  0.49003839    -0.13200
F673        F  0.77790633  0.73427108  0.43809552    -0.13700
C674        C  0.79339377  0.67551071  0.51137334     0.16000
C675        C  0.80564681  0.66229915  0.52156556     0.25400
C676        C  0.81556230  0.65024813  0.50521626    -0.40800
C677        C  0.81324615  0.65184900  0.47853392     0.32400
C678        C  0.80118394  0.66525167  0.46837436     0.14100
F679        F  0.78371006  0.68681302  0.52746036    -0.13200
F680        F  0.82289509  0.64065024  0.46228427    -0.13700
F681        F  0.80728337  0.66084843  0.54742029    -0.16000
F682        F  0.79906258  0.66652595  0.44256792    -0.14600
F683        F  0.80256675  0.70911485  0.45726677    -0.14600
F684        F  0.72732702  0.69672731  0.46965913    -0.16000
C685        C  0.92956913  0.61613992  0.75373963     0.14100
C686        C  0.91968697  0.62672746  0.73561830     0.01000
C687        C  0.91333470  0.64460634  0.74223212     0.16000
C688        C  0.91685033  0.65185576  0.76657649     0.25400
C689        C  0.92684490  0.64134813  0.78474601    -0.40900
C690        C  0.93320485  0.62342600  0.77810795     0.32500
C691        C  0.91579026  0.61920891  0.70981688     0.01100
F692        F  0.90352592  0.65498602  0.72513058    -0.13200
F693        F  0.94254722  0.61278613  0.79538638    -0.13700
C694        C  0.90448028  0.60339145  0.70685532     0.16000
C695        C  0.89953534  0.59721468  0.68235297     0.25400
C696        C  0.90569184  0.60690710  0.66052496    -0.40800
C697        C  0.91735862  0.62246866  0.66350985     0.32400
C698        C  0.92247693  0.62849447  0.68797489     0.14100
F699        F  0.89744323  0.59453260  0.72771426    -0.13200
F700        F  0.92369405  0.63190648  0.64270165    -0.13700
F701        F  0.88775204  0.58252898  0.68002612    -0.16000
F702        F  0.93376300  0.64356652  0.69041126    -0.14600
F703        F  0.93585638  0.59883360  0.74771019    -0.14600
F704        F  0.91091363  0.66937716  0.77207308    -0.16000
C705        C  0.98559856  0.30165064  0.97528637     0.14100
C706        C  0.00168322  0.30005225  0.99050579     0.01000
C707        C  0.99978144  0.29673395  0.01690715     0.16000
C708        C  0.98219481  0.29419835  0.02776490     0.25400
C709        C  0.96605121  0.29515408  0.01246563    -0.40900
C710        C  0.96792254  0.29926147  0.98617625     0.32500
C711        C  0.02048722  0.30060967  0.97880494     0.01100
F712        F  0.01506806  0.29561935  0.03217430    -0.13200
F713        F  0.95266564  0.30101209  0.97098685    -0.13700
C714        C  0.02650202  0.31618377  0.96474185     0.16000
C715        C  0.04438321  0.31651934  0.95400900     0.25400
C716        C  0.05658521  0.30128591  0.95724919    -0.40800
C717        C  0.05044080  0.28569301  0.97126275     0.32400
C718        C  0.03258311  0.28535558  0.98182906     0.14100
F719        F  0.01521111  0.33123722  0.96187517    -0.13200
F720        F  0.06141969  0.27041176  0.97402542    -0.13700
F721        F  0.04989329  0.33197244  0.94106348    -0.16000
F722        F  0.02691669  0.26986831  0.99459536    -0.14600
F723        F  0.98702735  0.30485052  0.94970517    -0.14600
F724        F  0.98113520  0.28988920  0.05305479    -0.16000
C725        C  0.85827557  0.43746215  0.47989747     0.14100
C726        C  0.84452115  0.44730801  0.49340179     0.01000
C727        C  0.82687378  0.43931393  0.49677618     0.16000
C728        C  0.82287448  0.42183139  0.48628533     0.25400
C729        C  0.83654146  0.41201741  0.47233535    -0.40900
C730        C  0.85434578  0.41994971  0.46945117     0.32500
C731        C  0.84821905  0.46643747  0.50247022     0.01100
F732        F  0.81330814  0.44876645  0.50944310    -0.13200
F733        F  0.86805160  0.41065404  0.45686644    -0.13700
C734        C  0.84980811  0.48097179  0.48463894     0.16000
C735        C  0.85308562  0.49919931  0.49287731     0.25400
C736        C  0.85489916  0.50322128  0.51919533    -0.40800
C737        C  0.85336593  0.48855611  0.53705868     0.32400
C738        C  0.84996525  0.47031270  0.52872737     0.14100
F739        F  0.84793500  0.47749521  0.45917944    -0.13200
F740        F  0.85454712  0.49192484  0.56260925    -0.13700
F741        F  0.85486089  0.51282588  0.47499224    -0.16000
F742        F  0.84841197  0.45640674  0.54625374    -0.14600
F743        F  0.87552437  0.44487424  0.47683304    -0.14600
F744        F  0.80536779  0.41494267  0.48879024    -0.16000
C745        C  0.84886902  0.31152432  0.20881414     0.14100
C746        C  0.86027463  0.30627054  0.22950673     0.01000
C747        C  0.87744978  0.29748487  0.22450262     0.16000
C748        C  0.88291137  0.29371376  0.19926703     0.25400
C749        C  0.87108839  0.29828191  0.17873898    -0.40900
C750        C  0.85412951  0.30738489  0.18370729     0.32500
C751        C  0.85403621  0.30969902  0.25620273     0.01100
F752        F  0.88861321  0.29191176  0.24407711    -0.13200
F753        F  0.84272478  0.31252298  0.16416628    -0.13700
C754        C  0.83650419  0.30337687  0.26448239     0.16000
C755        C  0.83032547  0.30705309  0.28939170     0.25400
C756        C  0.84175291  0.31677223  0.30680679    -0.40800
C757        C  0.85946639  0.32277319  0.29856301     0.32400
C758        C  0.86542614  0.31946488  0.27346000     0.14100
F759        F  0.82534531  0.29350955  0.24843975    -0.13200
F760        F  0.87127064  0.33156852  0.31486154    -0.13700
F761        F  0.81291959  0.30153255  0.29608142    -0.16000
F762        F  0.88223810  0.32613640  0.26587613    -0.14600
F763        F  0.83263441  0.32078912  0.21290418    -0.14600
F764        F  0.89930306  0.28477892  0.19499995    -0.16000
C765        C  0.51680020  0.17426249  0.48603523     0.14100
C766        C  0.50088617  0.17523037  0.50156429     0.01000
C767        C  0.50272711  0.17366930  0.52827485     0.16000
C768        C  0.52036857  0.17174368  0.53939280     0.25400
C769        C  0.53643275  0.17143360  0.52387410    -0.40900
C770        C  0.53439164  0.17228381  0.49704307     0.32500
C771        C  0.48256299  0.17884608  0.48974809     0.01100
F772        F  0.48744366  0.17435009  0.54358266    -0.13200
F773        F  0.54944749  0.17131860  0.48135450    -0.13700
C774        C  0.47521076  0.16636144  0.47169929     0.16000
C775        C  0.45870988  0.17061364  0.45876340     0.25400
C776        C  0.44929679  0.18746642  0.46368443    -0.40800
C777        C  0.45654631  0.19980354  0.48212964     0.32400
C778        C  0.47303462  0.19549748  0.49506855     0.14100
F779        F  0.48412097  0.15008868  0.46650622    -0.13200
F780        F  0.44827688  0.21650126  0.48668191    -0.13700
F781        F  0.45189450  0.15815350  0.44158765    -0.16000
F782        F  0.48018340  0.20800415  0.51193310    -0.14600
F783        F  0.51535745  0.17598811  0.46018052    -0.14600
F784        F  0.52171720  0.17117113  0.56532955    -0.16000
C785        C  0.69277332  0.24561319  0.48750297     0.14100
C786        C  0.70049223  0.26061881  0.50126566     0.01000
C787        C  0.69313344  0.26511290  0.52549323     0.16000
C788        C  0.67916807  0.25412269  0.53641165     0.25400
C789        C  0.67193871  0.23877803  0.52301125    -0.40900
C790        C  0.67843387  0.23494499  0.49815579     0.32500
C791        C  0.71682368  0.27087307  0.49099087     0.01100
F792        F  0.69955130  0.28010872  0.53866537    -0.13200
F793        F  0.67167598  0.22020383  0.48476507    -0.13700
C794        C  0.71654228  0.27829968  0.46602606     0.16000
C795        C  0.73237582  0.28690258  0.45589149     0.25400
C796        C  0.74858803  0.28867859  0.47075410    -0.40800
C797        C  0.74874354  0.28181833  0.49595878     0.32400
C798        C  0.73309589  0.27273480  0.50587260     0.14100
F799        F  0.70084106  0.27747036  0.45156408    -0.13200
F800        F  0.76427378  0.28333516  0.51067048    -0.13700
F801        F  0.73169795  0.29400637  0.43178178    -0.16000
F802        F  0.73405500  0.26523679  0.52974583    -0.14600
F803        F  0.69974015  0.24067313  0.46427446    -0.14600
F804        F  0.67260311  0.25854105  0.56005445    -0.16000
C805        C  0.71303109  0.95026547  0.99614335     0.14100
C806        C  0.72620270  0.95966444  0.98102071     0.01000
C807        C  0.74349039  0.95119595  0.97621058     0.16000
C808        C  0.74764804  0.93368082  0.98654312     0.25400
C809        C  0.73451922  0.92420421  0.00181693    -0.40900
C810        C  0.71712208  0.93269391  0.00644239     0.32500
C811        C  0.72225017  0.97859077  0.97098836     0.01100
F812        F  0.75660063  0.96018186  0.96211054    -0.13200
F813        F  0.70386574  0.92384112  0.02041880    -0.13700
C814        C  0.71966268  0.99354102  0.98798493     0.16000
C815        C  0.71696934  0.01163390  0.97865011     0.25400
C816        C  0.71674225  0.01512068  0.95206810    -0.40800
C817        C  0.71893527  0.00001401  0.93506081     0.32400
C818        C  0.72172946  0.98193807  0.94446369     0.14100
F819        F  0.72022382  0.99066757  0.01370380    -0.13200
F820        F  0.71910488  0.00277836  0.90932046    -0.13700
F821        F  0.71434440  0.02568937  0.99568629    -0.16000
F822        F  0.72400692  0.96766942  0.92765430    -0.14600
F823        F  0.69609371  0.95803992  0.00066270    -0.14600
F824        F  0.76482944  0.92637430  0.98237690    -0.16000
C825        C  0.78812829  0.16958690  0.98440598     0.14100
C826        C  0.78666142  0.18829195  0.97693014     0.01000
C827        C  0.77221850  0.19365859  0.96038958     0.16000
C828        C  0.75945219  0.18047732  0.95132131     0.25400
C829        C  0.76104826  0.16149156  0.95832764    -0.40900
C830        C  0.77564929  0.15630438  0.97507332     0.32500
C831        C  0.80037705  0.20207798  0.98630814     0.01100
F832        F  0.77066011  0.21166796  0.95264895    -0.13200
F833        F  0.77840518  0.13831573  0.98205222    -0.13700
C834        C  0.81942316  0.19965552  0.98110787     0.16000
C835        C  0.83256422  0.21207533  0.99101145     0.25400
C836        C  0.82688090  0.22723503  0.00626504    -0.40800
C837        C  0.80771760  0.22981072  0.01106393     0.32400
C838        C  0.79460635  0.21732535  0.00118584     0.14100
F839        F  0.82531279  0.18512278  0.96652769    -0.13200
F840        F  0.80159080  0.24448763  0.02516554    -0.13700
F841        F  0.85088613  0.20873803  0.98653126    -0.16000
F842        F  0.77629396  0.21982999  0.00674450    -0.14600
F843        F  0.80171657  0.16414930  0.00092331    -0.14600
F844        F  0.74545385  0.18653178  0.93596667    -0.16000
C845        C  0.66228270  0.11116344  0.76019774     0.14100
C846        C  0.65014082  0.12656288  0.75921714     0.01000
C847        C  0.64502836  0.13545977  0.78218448     0.16000
C848        C  0.65292880  0.12993721  0.80546650     0.25400
C849        C  0.66568996  0.11509613  0.80629149    -0.40900
C850        C  0.66987120  0.10536474  0.78362575     0.32500
C851        C  0.64415224  0.13443777  0.73423284     0.01100
F852        F  0.63266142  0.14979610  0.78194686    -0.13200
F853        F  0.68228207  0.09107170  0.78389110    -0.13700
C854        C  0.63468682  0.12349335  0.71609186     0.16000
C855        C  0.62960727  0.13104748  0.69231689     0.25400
C856        C  0.63393402  0.14968877  0.68626574    -0.40800
C857        C  0.64327642  0.16063150  0.70458095     0.32400
C858        C  0.64837957  0.15306246  0.72823546     0.14100
F859        F  0.63029561  0.10550666  0.72143188    -0.13200
F860        F  0.64722610  0.17880688  0.69984786    -0.13700
F861        F  0.62100335  0.11991817  0.67494256    -0.16000
F862        F  0.65784994  0.16387017  0.74516110    -0.14600
F863        F  0.66766723  0.10244514  0.73831617    -0.14600
F864        F  0.64823186  0.13919635  0.82722941    -0.16000
loop_ 
_geom_bond_atom_site_label_1 
_geom_bond_atom_site_label_2 
_geom_bond_distance 
_geom_bond_site_symmetry_2 
_ccdc_geom_bond_type 
N1            N2   1.323       .  A
N1            C5   1.347       .  A
N1           Cu9   2.078       .  S
N2            C3   1.343       .  A
N2           Cu8   2.071       .  S
C3            C4   1.382       .  A
C3            H6   1.082       .  S
C4            C5   1.384       .  A
C4          C849   1.475       .  S
C5            H7   1.082       .  S
Cu8          N11   2.070       .  S
Cu9          N19   2.078       .  S
Cu10         N12   2.075       .  S
Cu10         N18   2.076       .  S
N11          N12   1.319       .  A
N11          C15   1.344       .  A
N12          C13   1.343       .  A
C13          C14   1.392       .  A
C13          H16   1.079       .  S
C14          C15   1.391       .  A
C14         C829   1.495       .  S
C15          H17   1.080       .  S
N18          N19   1.322       .  A
N18          C22   1.345       .  A
N19          C20   1.346       .  A
C20          C21   1.387       .  A
C20          H23   1.082       .  S
C21          C22   1.387       .  A
C21         C816   1.486       .  S
C22          H24   1.082       .  S
N25          N26   1.322       .  A
N25          C29   1.346       .  A
N25         Cu33   2.077       .  S
N26          C27   1.344       .  A
N26         Cu32   2.075       .  S
C27          C28   1.385       .  A
C27          H30   1.082       .  S
C28          C29   1.386       .  A
C28         C856   1.483       .  S
C29          H31   1.082       .  S
Cu32         N35   2.074       .  S
Cu33         N43   2.077       .  S
Cu34         N36   2.061       .  S
Cu34         N42   2.061       .  S
N35          N36   1.321       .  A
N35          C39   1.344       .  A
N36          C37   1.345       .  A
C37          C38   1.383       .  A
C37          H40   1.082       .  S
C38          C39   1.384       .  A
C38         C789   1.475       .  S
C39          H41   1.082       .  S
N42          N43   1.321       .  A
N42          C46   1.340       .  A
N43          C44   1.347       .  A
C44          C45   1.388       .  A
C44          H47   1.081       .  S
C45          C46   1.383       .  A
C45         C769   1.480       .  S
C46          H48   1.082       .  S
N49          N50   1.322       .  A
N49          C53   1.343       .  A
N49         Cu57   2.073       .  S
N50          C51   1.345       .  A
N50         Cu56   2.076       .  S
C51          C52   1.388       .  A
C51          H54   1.081       .  S
C52          C53   1.386       .  A
C52         C756   1.486       .  S
C53          H55   1.081       .  S
Cu56         N59   2.076       .  S
Cu57         N67   2.073       .  S
Cu58         N60   2.066       .  S
Cu58         N66   2.067       .  S
N59          N60   1.322       .  A
N59          C63   1.345       .  A
N60          C61   1.344       .  A
C61          C62   1.381       .  A
C61          H64   1.082       .  S
C62          C63   1.384       .  A
C62         C796   1.473       .  S
C63          H65   1.082       .  S
N66          N67   1.321       .  A
N66          C70   1.343       .  A
N67          C68   1.345       .  A
C68          C69   1.387       .  A
C68          H71   1.082       .  S
C69          C70   1.384       .  A
C69         C729   1.481       .  S
C70          H72   1.082       .  S
N73          N74   1.320       .  A
N73          C77   1.347       .  A
N73         Cu81   2.071       .  S
N74          C75   1.340       .  A
N74         Cu80   2.056       .  S
C75          C76   1.380       .  A
C75          H78   1.082       .  S
C76          C77   1.385       .  A
C76         C749   1.474       .  S
C77          H79   1.082       .  S
Cu80         N83   2.056       .  S
Cu81         N91   2.072       .  S
Cu82         N84   2.082       .  S
Cu82         N90   2.083       .  S
N83          N84   1.320       .  A
N83          C87   1.342       .  A
N84          C85   1.346       .  A
C85          C86   1.390       .  A
C85          H88   1.081   1_554  S
C86          C87   1.383       .  A
C86         C836   1.483       .  S
C87          H89   1.082       .  S
N90          N91   1.323       .  A
N90          C94   1.346       .  A
N91          C92   1.343       .  A
C92          C93   1.384       .  A
C92          H95   1.081       .  S
C93          C94   1.387       .  A
C93         C709   1.484       .  S
C94          H96   1.082   1_554  S
N97          N98   1.322       .  A
N97         C101   1.347       .  A
N97        Cu105   2.081       .  S
N98          C99   1.342       .  A
N98        Cu104   2.060       .  S
C99         C100   1.380       .  A
C99         H102   1.082       .  S
C100        C101   1.385       .  A
C100        C696   1.473       .  S
C101        H103   1.082       .  S
Cu104       N107   2.060       .  S
Cu105       N115   2.082       .  S
Cu106       N108   2.069       .  S
Cu106       N114   2.070       .  S
N107        N108   1.320       .  A
N107        C111   1.343       .  A
N108        C109   1.344       .  A
C109        C110   1.384       .  A
C109        H112   1.082       .  S
C110        C111   1.383       .  A
C110        C676   1.475       .  S
C111        H113   1.082       .  S
N114        N115   1.322       .  A
N114        C118   1.343       .  A
N115        C116   1.347       .  A
C116        C117   1.387       .  A
C116        H119   1.082       .  S
C117        C118   1.384       .  A
C117        C736   1.483       .  S
C118        H120   1.082       .  S
N121        N122   1.320       .  A
N121        C125   1.344       .  A
N121       Cu129   2.063       .  S
N122        C123   1.341       .  A
N122       Cu128   2.061       .  S
C123        C124   1.384       .  A
C123        H126   1.084       .  S
C124        C125   1.385       .  A
C124        C689   1.477       .  S
C125        H127   1.083       .  S
Cu128       N131   2.061       .  S
Cu129       N139   2.063       .  S
Cu130       N132   2.078       .  S
Cu130       N138   2.078       .  S
N131        N132   1.321       .  A
N131        C135   1.341       .  A
N132        C133   1.346       .  A
C133        C134   1.389       .  A
C133        H136   1.081       .  S
C134        C135   1.383       .  A
C134        C649   1.483       .  S
C135        H137   1.081       .  S
N138        N139   1.323       .  A
N138        C142   1.345       .  A
N139        C140   1.342       .  A
C140        C141   1.381   1_655  A
C140        H143   1.082   1_655  S
C141        C142   1.385   1_455  A
C141        C629   1.475       .  S
C142        H144   1.082       .  S
N145        N146   1.322       .  A
N145        C149   1.345       .  A
N145       Cu153   2.074       .  S
N146        C147   1.344       .  A
N146       Cu152   2.069       .  S
C147        C148   1.383       .  A
C147        H150   1.082       .  S
C148        C149   1.384       .  A
C148        C609   1.477       .  S
C149        H151   1.082       .  S
Cu152       N155   2.069       .  S
Cu153       N163   2.074       .  S
Cu154       N156   2.067       .  S
Cu154       N162   2.068       .  S
N155        N156   1.321       .  A
N155        C159   1.344       .  A
N156        C157   1.343       .  A
C157        C158   1.386       .  A
C157        H160   1.081       .  S
C158        C159   1.386       .  A
C158        C669   1.482       .  S
C159        H161   1.081       .  S
N162        N163   1.321       .  A
N162        C166   1.343       .  A
N163        C164   1.344       .  A
C164        C165   1.388       .  A
C164        H167   1.081       .  S
C165        C166   1.387       .  A
C165        C589   1.486       .  S
C166        H168   1.081       .  S
N169        N170   1.322       .  A
N169        C173   1.345       .  A
N169       Cu177   2.078       .  S
N170        C171   1.344       .  A
N170       Cu176   2.071       .  S
C171        C172   1.386       .  A
C171        H174   1.081       .  S
C172        C173   1.387       .  A
C172        C616   1.484       .  S
C173        H175   1.082       .  S
Cu176       N179   2.071       .  S
Cu177       N187   2.078       .  S
Cu178       N180   2.075       .  S
Cu178       N186   2.076       .  S
N179        N180   1.321       .  A
N179        C183   1.344       .  A
N180        C181   1.346   1_554  A
C181        C182   1.386   1_556  A
C181        H184   1.082       .  S
C182        C183   1.385       .  A
C182        C656   1.481   1_554  S
C183        H185   1.082       .  S
N186        N187   1.322       .  A
N186        C190   1.344       .  A
N187        C188   1.346       .  A
C188        C189   1.388       .  A
C188        H191   1.082       .  S
C189        C190   1.386       .  A
C189        C809   1.486       .  S
C190        H192   1.081   1_554  S
N193        N194   1.320       .  A
N193        C197   1.343       .  A
N193       Cu201   2.063       .  S
N194        C195   1.340       .  A
N194       Cu200   2.052       .  S
C195        C196   1.381       .  A
C195        H198   1.082       .  S
C196        C197   1.384       .  A
C196        C569   1.473       .  S
C197        H199   1.082       .  S
Cu200       N203   2.052       .  S
Cu201       N211   2.064       .  S
Cu202       N204   2.066       .  S
Cu202       N210   2.066       .  S
N203        N204   1.320       .  A
N203        C207   1.341       .  A
N204        C205   1.343       .  A
C205        C206   1.385       .  A
C205        H208   1.082       .  S
C206        C207   1.382       .  A
C206        C549   1.474       .  S
C207        H209   1.082       .  S
N210        N211   1.321       .  A
N210        C214   1.342       .  A
N211        C212   1.343       .  A
C212        C213   1.384       .  A
C212        H215   1.082       .  S
C213        C214   1.384       .  A
C213        C529   1.477       .  S
C214        H216   1.081       .  S
N217        N218   1.321       .  A
N217        C221   1.345       .  A
N217       Cu225   2.064       .  S
N218        C219   1.340       .  A
N218       Cu224   2.058       .  S
C219        C220   1.378       .  A
C219        H222   1.082       .  S
C220        C221   1.382       .  A
C220        C576   1.466       .  S
C221        H223   1.082       .  S
Cu224       N227   2.059       .  S
Cu225       N235   2.065       .  S
Cu226       N228   2.076       .  S
Cu226       N234   2.076       .  S
N227        N228   1.319       .  A
N227        C231   1.342       .  A
N228        C229   1.345       .  A
C229        C230   1.390       .  A
C229        H232   1.081   1_554  S
C230        C231   1.386       .  A
C230        C516   1.486       .  S
C231        H233   1.081       .  S
N234        N235   1.322       .  A
N234        C238   1.344   1_554  A
N235        C236   1.343       .  A
C236        C237   1.384       .  A
C236        H239   1.082       .  S
C237        C238   1.386   1_554  A
C237        C636   1.481   1_554  S
C238        H240   1.081       .  S
N241        N242   1.323       .  A
N241        C245   1.346       .  A
N241       Cu249   2.077       .  S
N242        C243   1.341       .  A
N242       Cu248   2.067       .  S
C243        C244   1.381       .  A
C243        H246   1.082       .  S
C244        C245   1.385       .  A
C244        C496   1.476       .  S
C245        H247   1.082       .  S
Cu248       N251   2.066       .  S
Cu249       N259   2.077       .  S
Cu250       N252   2.064       .  S
Cu250       N258   2.065       .  S
N251        N252   1.319       .  A
N251        C255   1.344       .  A
N252        C253   1.343       .  A
C253        C254   1.386       .  A
C253        H256   1.082       .  S
C254        C255   1.386       .  A
C254        C509   1.481       .  S
C255        H257   1.082       .  S
N258        N259   1.322       .  A
N258        C262   1.341       .  A
N259        C260   1.347       .  A
C260        C261   1.387       .  A
C260        H263   1.082       .  S
C261        C262   1.382       .  A
C261        C469   1.479       .  S
C262        H264   1.082       .  S
N265        N266   1.321       .  A
N265        C269   1.347       .  A
N265       Cu273   2.078       .  S
N266        C267   1.340       .  A
N266       Cu272   2.060       .  S
C267        C268   1.382       .  A
C267        H270   1.081       .  S
C268        C269   1.388       .  A
C268        C489   1.479       .  S
C269        H271   1.082       .  S
Cu272       N275   2.059       .  S
Cu273       N283   2.078       .  S
Cu274       N276   2.063       .  S
Cu274       N282   2.064       .  S
N275        N276   1.319       .  A
N275        C279   1.343       .  A
N276        C277   1.342       .  A
C277        C278   1.386       .  A
C277        H280   1.081       .  S
C278        C279   1.386       .  A
C278        C556   1.480       .  S
C279        H281   1.081       .  S
N282        N283   1.322       .  A
N282        C286   1.343       .  A
N283        C284   1.345       .  A
C284        C285   1.387       .  A
C284        H287   1.082       .  S
C285        C286   1.384       .  A
C285        C596   1.481       .  S
C286        H288   1.081       .  S
N289        N290   1.321       .  A
N289        C293   1.344       .  A
N289       Cu297   2.067       .  S
N290        C291   1.342       .  A
N290       Cu296   2.065       .  S
C291        C292   1.383       .  A
C291        H294   1.082       .  S
C292        C293   1.384       .  A
C292        C456   1.476       .  S
C293        H295   1.082       .  S
Cu296       N299   2.065       .  S
Cu297       N307   2.067       .  S
Cu298       N300   2.075       .  S
Cu298       N306   2.076       .  S
N299        N300   1.321       .  A
N299        C303   1.343       .  A
N300        C301   1.345       .  A
C301        C302   1.386       .  A
C301        H304   1.082       .  S
C302        C303   1.383       .  A
C302        C429   1.479       .  S
C303        H305   1.082       .  S
N306        N307   1.321       .  A
N306        C310   1.344       .  A
N307        C308   1.344       .  A
C308        C309   1.385       .  A
C308        H311   1.081       .  S
C309        C310   1.387       .  A
C309        C716   1.483       .  S
C310        H312   1.081       .  S
N313        N314   1.321       .  A
N313        C317   1.347       .  A
N313       Cu321   2.075       .  S
N314        C315   1.340       .  A
N314       Cu320   2.061       .  S
C315        C316   1.383       .  A
C315        H318   1.081       .  S
C316        C317   1.387       .  A
C316        C449   1.480       .  S
C317        H319   1.082       .  S
Cu320       N323   2.061       .  S
Cu321       N331   2.075       .  S
Cu322       N324   2.069       .  S
Cu322       N330   2.070       .  S
N323        N324   1.320       .  A
N323        C327   1.343       .  A
N324        C325   1.345       .  A
C325        C326   1.385       .  A
C325        H328   1.082       .  S
C326        C327   1.382       .  A
C326        C409   1.475       .  S
C327        H329   1.082       .  S
N330        N331   1.323       .  A
N330        C334   1.341       .  A
N331        C332   1.346       .  A
C332        C333   1.387       .  A
C332        H335   1.081       .  S
C333        C334   1.384       .  A
C333        C536   1.481       .  S
C334        H336   1.081       .  S
N337        N338   1.319       .  A
N337        C341   1.346       .  A
N337       Cu345   2.068       .  S
N338        C339   1.339       .  A
N338       Cu344   2.053       .  S
C339        C340   1.382       .  A
C339        H342   1.082       .  S
C340        C341   1.387       .  A
C340        C389   1.477       .  S
C341        H343   1.082       .  S
Cu344       N347   2.054       .  S
Cu345       N355   2.070       .  S
Cu346       N348   2.078       .  S
Cu346       N354   2.079       .  S
N347        N348   1.321       .  A
N347        C351   1.341       .  A
N348        C349   1.347   1_554  A
C349        C350   1.385   1_556  A
C349        H352   1.082       .  S
C350        C351   1.379       .  A
C350        C436   1.471   1_554  S
C351        H353   1.082       .  S
N354        N355   1.324       .  A
N354        C358   1.346   1_554  A
N355        C356   1.343       .  A
C356        C357   1.382       .  A
C356        H359   1.082       .  S
C357        C358   1.384   1_554  A
C357        C476   1.476   1_554  S
C358        H360   1.082       .  S
N361        N362   1.321       .  A
N361        C365   1.342       .  A
N361       Cu369   2.058       .  S
N362        C363   1.343       .  A
N362       Cu368   2.071       .  S
C363        C364   1.386       .  A
C363        H366   1.081       .  S
C364        C365   1.383       .  A
C364        C396   1.479       .  S
C365        H367   1.081       .  S
Cu368       N371   2.072       .  S
Cu369       N379   2.058       .  S
Cu370       N372   2.069       .  S
Cu370       N378   2.069       .  S
N371        N372   1.322       .  A
N371        C375   1.345       .  A
N372        C373   1.344       .  A
C373        C374   1.382       .  A
C373        H376   1.082       .  S
C374        C375   1.382       .  A
C374        C416   1.472       .  S
C375        H377   1.082       .  S
N378        N379   1.320       .  A
N378        C382   1.344       .  A
N379        C380   1.342       .  A
C380        C381   1.383       .  A
C380        H383   1.082       .  S
C381        C382   1.385       .  A
C381        C776   1.478       .  S
C382        H384   1.082       .  S
C385        C386   1.403       .  A
C385        C390   1.399       .  A
C385        F403   1.358       .  S
C386        C387   1.401       .  A
C386        C391   1.470       .  S
C387        C388   1.394       .  A
C387        F392   1.358       .  S
C388        C389   1.409       .  A
C388        F404   1.358       .  S
C389        C390   1.408       .  A
C390        F393   1.357       .  S
C391        C394   1.401       .  A
C391        C398   1.402       .  A
C394        C395   1.398       .  A
C394        F399   1.358       .  S
C395        C396   1.411       .  A
C395        F401   1.357       .  S
C396        C397   1.408       .  A
C397        C398   1.394       .  A
C397        F400   1.357       .  S
C398        F402   1.358       .  S
C405        C406   1.407       .  A
C405        C410   1.397       .  A
C405        F423   1.358       .  S
C406        C407   1.408       .  A
C406        C411   1.483       .  S
C407        C408   1.399       .  A
C407        F412   1.358       .  S
C408        C409   1.405       .  A
C408        F424   1.358       .  S
C409        C410   1.406       .  A
C410        F413   1.358       .  S
C411        C414   1.407       .  A
C411        C418   1.408       .  A
C414        C415   1.398       .  A
C414        F419   1.358       .  S
C415        C416   1.404       .  A
C415        F421   1.358       .  S
C416        C417   1.404       .  A
C417        C418   1.398       .  A
C417        F420   1.358       .  S
C418        F422   1.358       .  S
C425        C426   1.407       .  A
C425        C430   1.398       .  A
C425        F443   1.358       .  S
C426        C427   1.408       .  A
C426        C431   1.485       .  S
C427        C428   1.398       .  A
C427        F432   1.358   1_556  S
C428        C429   1.406       .  A
C428        F444   1.358       .  S
C429        C430   1.407       .  A
C430        F433   1.358       .  S
C431        C434   1.409       .  A
C431        C438   1.408       .  A
C434        C435   1.399       .  A
C434        F439   1.358       .  S
C435        C436   1.403       .  A
C435        F441   1.358       .  S
C436        C437   1.404   1_556  A
C437        C438   1.396   1_554  A
C437        F440   1.358       .  S
C438        F442   1.358   1_556  S
C445        C446   1.407       .  A
C445        C450   1.401       .  A
C445        F463   1.358       .  S
C446        C447   1.405       .  A
C446        C451   1.482       .  S
C447        C448   1.393       .  A
C447        F452   1.358       .  S
C448        C449   1.407       .  A
C448        F464   1.357       .  S
C449        C450   1.408       .  A
C450        F453   1.357       .  S
C451        C454   1.407       .  A
C451        C458   1.406       .  A
C454        C455   1.399       .  A
C454        F459   1.358       .  S
C455        C456   1.407       .  A
C455        F461   1.358       .  S
C456        C457   1.405       .  A
C457        C458   1.395       .  A
C457        F460   1.358       .  S
C458        F462   1.358       .  S
C465        C466   1.405       .  A
C465        C470   1.401       .  A
C465        F483   1.358   1_565  S
C466        C467   1.403       .  A
C466        C471   1.478   1_565  S
C467        C468   1.395       .  A
C467        F472   1.358       .  S
C468        C469   1.408       .  A
C468        F484   1.358       .  S
C469        C470   1.408       .  A
C470        F473   1.357       .  S
C471        C474   1.405       .  A
C471        C478   1.405   1_556  A
C474        C475   1.399       .  A
C474        F479   1.358       .  S
C475        C476   1.406       .  A
C475        F481   1.358       .  S
C476        C477   1.407   1_556  A
C477        C478   1.397       .  A
C477        F480   1.358       .  S
C478        F482   1.358       .  S
C485        C486   1.404       .  A
C485        C490   1.401       .  A
C485        F503   1.358       .  S
C486        C487   1.402       .  A
C486        C491   1.475       .  S
C487        C488   1.394       .  A
C487        F492   1.358       .  S
C488        C489   1.408       .  A
C488        F504   1.358       .  S
C489        C490   1.409       .  A
C490        F493   1.357       .  S
C491        C494   1.404       .  A
C491        C498   1.403       .  A
C494        C495   1.400       .  A
C494        F499   1.358       .  S
C495        C496   1.407       .  A
C495        F501   1.358       .  S
C496        C497   1.407       .  A
C497        C498   1.395       .  A
C497        F500   1.358       .  S
C498        F502   1.358       .  S
C505        C506   1.405       .  A
C505        C510   1.399       .  A
C505        F523   1.358       .  S
C506        C507   1.405       .  A
C506        C511   1.481       .  S
C507        C508   1.398       .  A
C507        F512   1.358       .  S
C508        C509   1.407       .  A
C508        F524   1.357       .  S
C509        C510   1.409       .  A
C510        F513   1.357       .  S
C511        C514   1.405       .  A
C511        C518   1.404   1_556  A
C514        C515   1.400       .  A
C514        F519   1.358       .  S
C515        C516   1.410   1_556  A
C515        F521   1.357       .  S
C516        C517   1.410       .  A
C517        C518   1.397       .  A
C517        F520   1.357       .  S
C518        F522   1.358       .  S
C525        C526   1.403       .  A
C525        C530   1.396       .  A
C525        F543   1.358       .  S
C526        C527   1.403       .  A
C526        C531   1.475       .  S
C527        C528   1.397       .  A
C527        F532   1.358       .  S
C528        C529   1.408       .  A
C528        F544   1.357       .  S
C529        C530   1.408       .  A
C530        F533   1.358       .  S
C531        C534   1.404       .  A
C531        C538   1.402       .  A
C534        C535   1.399       .  A
C534        F539   1.358       .  S
C535        C536   1.409       .  A
C535        F541   1.357       .  S
C536        C537   1.409       .  A
C537        C538   1.395       .  A
C537        F540   1.357       .  S
C538        F542   1.358       .  S
C545        C546   1.405       .  A
C545        C550   1.396       .  A
C545        F563   1.358       .  S
C546        C547   1.405       .  A
C546        C551   1.476       .  S
C547        C548   1.396       .  A
C547        F552   1.358       .  S
C548        C549   1.407       .  A
C548        F564   1.358       .  S
C549        C550   1.406       .  A
C550        F553   1.357       .  S
C551        C554   1.404       .  A
C551        C558   1.404       .  A
C554        C555   1.396       .  A
C554        F559   1.358       .  S
C555        C556   1.409       .  A
C555        F561   1.357       .  S
C556        C557   1.409       .  A
C557        C558   1.397       .  A
C557        F560   1.357       .  S
C558        F562   1.358       .  S
C565        C566   1.401       .  A
C565        C570   1.395       .  A
C565        F583   1.358       .  S
C566        C567   1.401       .  A
C566        C571   1.466       .  S
C567        C568   1.394       .  A
C567        F572   1.358       .  S
C568        C569   1.408       .  A
C568        F584   1.358       .  S
C569        C570   1.408       .  A
C570        F573   1.357       .  S
C571        C574   1.402       .  A
C571        C578   1.403       .  A
C574        C575   1.395       .  A
C574        F579   1.358       .  S
C575        C576   1.405       .  A
C575        F581   1.358       .  S
C576        C577   1.404       .  A
C577        C578   1.396       .  A
C577        F580   1.358       .  S
C578        F582   1.358       .  S
C585        C586   1.403       .  A
C585        C590   1.398       .  A
C585        F603   1.358       .  S
C586        C587   1.403       .  A
C586        C591   1.478       .  S
C587        C588   1.398       .  A
C587        F592   1.358       .  S
C588        C589   1.411       .  A
C588        F604   1.357       .  S
C589        C590   1.411       .  A
C590        F593   1.357       .  S
C591        C594   1.404       .  A
C591        C598   1.404       .  A
C594        C595   1.398       .  A
C594        F599   1.358       .  S
C595        C596   1.408       .  A
C595        F601   1.357       .  S
C596        C597   1.410       .  A
C597        C598   1.398       .  A
C597        F600   1.357       .  S
C598        F602   1.358       .  S
C605        C606   1.405       .  A
C605        C610   1.399       .  A
C605        F623   1.358       .  S
C606        C607   1.406       .  A
C606        C611   1.481       .  S
C607        C608   1.399       .  A
C607        F612   1.358       .  S
C608        C609   1.406       .  A
C608        F624   1.358       .  S
C609        C610   1.406       .  A
C610        F613   1.358       .  S
C611        C614   1.404       .  A
C611        C618   1.404       .  A
C614        C615   1.399       .  A
C614        F619   1.358       .  S
C615        C616   1.409       .  A
C615        F621   1.357       .  S
C616        C617   1.409       .  A
C617        C618   1.398       .  A
C617        F620   1.357       .  S
C618        F622   1.358       .  S
C625        C626   1.406       .  A
C625        C630   1.397       .  A
C625        F643   1.358       .  S
C626        C627   1.405       .  A
C626        C631   1.479       .  S
C627        C628   1.397       .  A
C627        F632   1.358       .  S
C628        C629   1.407       .  A
C628        F644   1.358       .  S
C629        C630   1.405       .  A
C630        F633   1.358       .  S
C631        C634   1.405       .  A
C631        C638   1.405       .  A
C634        C635   1.398       .  A
C634        F639   1.358       .  S
C635        C636   1.409       .  A
C635        F641   1.358   1_556  S
C636        C637   1.408       .  A
C637        C638   1.396       .  A
C637        F640   1.357       .  S
C638        F642   1.358       .  S
C645        C646   1.404       .  A
C645        C650   1.399       .  A
C645        F663   1.358       .  S
C646        C647   1.402       .  A
C646        C651   1.477       .  S
C647        C648   1.397       .  A
C647        F652   1.358       .  S
C648        C649   1.410       .  A
C648        F664   1.357       .  S
C649        C650   1.409       .  A
C650        F653   1.357       .  S
C651        C654   1.404       .  A
C651        C658   1.403       .  A
C654        C655   1.400       .  A
C654        F659   1.358       .  S
C655        C656   1.408       .  A
C655        F661   1.357       .  S
C656        C657   1.408   1_556  A
C657        C658   1.397   1_554  A
C657        F660   1.357       .  S
C658        F662   1.358   1_556  S
C665        C666   1.402       .  A
C665        C670   1.398       .  A
C665        F683   1.358       .  S
C666        C667   1.401       .  A
C666        C671   1.473       .  S
C667        C668   1.396       .  A
C667        F672   1.358       .  S
C668        C669   1.410       .  A
C668        F684   1.357       .  S
C669        C670   1.410       .  A
C670        F673   1.357       .  S
C671        C674   1.403       .  A
C671        C678   1.403       .  A
C674        C675   1.397       .  A
C674        F679   1.358       .  S
C675        C676   1.407       .  A
C675        F681   1.358       .  S
C676        C677   1.406       .  A
C677        C678   1.397       .  A
C677        F680   1.358       .  S
C678        F682   1.358       .  S
C685        C686   1.404       .  A
C685        C690   1.399       .  A
C685        F703   1.358       .  S
C686        C687   1.404       .  A
C686        C691   1.477       .  S
C687        C688   1.396       .  A
C687        F692   1.358       .  S
C688        C689   1.407       .  A
C688        F704   1.358       .  S
C689        C690   1.407       .  A
C690        F693   1.358       .  S
C691        C694   1.405       .  A
C691        C698   1.405       .  A
C694        C695   1.399       .  A
C694        F699   1.358       .  S
C695        C696   1.406       .  A
C695        F701   1.358       .  S
C696        C697   1.405       .  A
C697        C698   1.397       .  A
C697        F700   1.358       .  S
C698        F702   1.358       .  S
C705        C706   1.406   1_655  A
C705        C710   1.401       .  A
C705        F723   1.358       .  S
C706        C707   1.404   1_456  A
C706        C711   1.482       .  S
C707        C708   1.396       .  A
C707        F712   1.358   1_655  S
C708        C709   1.409       .  A
C708        F724   1.357       .  S
C709        C710   1.409   1_554  A
C710        F713   1.357       .  S
C711        C714   1.405       .  A
C711        C718   1.405       .  A
C714        C715   1.401       .  A
C714        F719   1.358       .  S
C715        C716   1.410       .  A
C715        F721   1.357       .  S
C716        C717   1.408       .  A
C717        C718   1.396       .  A
C717        F720   1.357       .  S
C718        F722   1.358       .  S
C725        C726   1.403       .  A
C725        C730   1.399       .  A
C725        F743   1.358       .  S
C726        C727   1.402       .  A
C726        C731   1.476       .  S
C727        C728   1.399       .  A
C727        F732   1.358       .  S
C728        C729   1.410       .  A
C728        F744   1.357       .  S
C729        C730   1.408       .  A
C730        F733   1.357       .  S
C731        C734   1.402       .  A
C731        C738   1.403       .  A
C734        C735   1.397       .  A
C734        F739   1.358       .  S
C735        C736   1.409       .  A
C735        F741   1.357       .  S
C736        C737   1.410       .  A
C737        C738   1.401       .  A
C737        F740   1.357       .  S
C738        F742   1.358       .  S
C745        C746   1.406       .  A
C745        C750   1.395       .  A
C745        F763   1.358       .  S
C746        C747   1.409       .  A
C746        C751   1.483       .  S
C747        C748   1.400       .  A
C747        F752   1.358       .  S
C748        C749   1.405       .  A
C748        F764   1.358       .  S
C749        C750   1.405       .  A
C750        F753   1.358       .  S
C751        C754   1.406       .  A
C751        C758   1.404       .  A
C754        C755   1.398       .  A
C754        F759   1.358       .  S
C755        C756   1.409       .  A
C755        F761   1.357       .  S
C756        C757   1.410       .  A
C757        C758   1.398       .  A
C757        F760   1.357       .  S
C758        F762   1.358       .  S
C765        C766   1.402       .  A
C765        C770   1.394       .  A
C765        F783   1.358       .  S
C766        C767   1.404       .  A
C766        C771   1.475       .  S
C767        C768   1.400       .  A
C767        F772   1.358       .  S
C768        C769   1.409       .  A
C768        F784   1.357       .  S
C769        C770   1.409       .  A
C770        F773   1.358       .  S
C771        C774   1.403       .  A
C771        C778   1.404       .  A
C774        C775   1.397       .  A
C774        F779   1.358       .  S
C775        C776   1.408       .  A
C775        F781   1.358       .  S
C776        C777   1.408       .  A
C777        C778   1.397       .  A
C777        F780   1.357       .  S
C778        F782   1.358       .  S
C785        C786   1.408       .  A
C785        C790   1.399       .  A
C785        F803   1.358       .  S
C786        C787   1.407       .  A
C786        C791   1.485       .  S
C787        C788   1.398       .  A
C787        F792   1.358       .  S
C788        C789   1.404       .  A
C788        F804   1.358       .  S
C789        C790   1.405       .  A
C790        F793   1.358       .  S
C791        C794   1.407       .  A
C791        C798   1.409       .  A
C794        C795   1.398       .  A
C794        F799   1.358       .  S
C795        C796   1.404       .  A
C795        F801   1.358       .  S
C796        C797   1.404       .  A
C797        C798   1.399       .  A
C797        F800   1.358       .  S
C798        F802   1.358       .  S
C805        C806   1.405       .  A
C805        C810   1.401   1_556  A
C805        F823   1.358   1_556  S
C806        C807   1.404       .  A
C806        C811   1.482       .  S
C807        C808   1.399       .  A
C807        F812   1.358       .  S
C808        C809   1.410   1_556  A
C808        F824   1.357       .  S
C809        C810   1.410       .  A
C810        F813   1.357       .  S
C811        C814   1.404       .  A
C811        C818   1.405       .  A
C814        C815   1.400   1_565  A
C814        F819   1.358   1_556  S
C815        C816   1.409       .  A
C815        F821   1.357       .  S
C816        C817   1.410       .  A
C817        C818   1.401   1_545  A
C817        F820   1.357       .  S
C818        F822   1.358       .  S
C825        C826   1.401       .  A
C825        C830   1.397       .  A
C825        F843   1.358   1_556  S
C826        C827   1.402       .  A
C826        C831   1.480       .  S
C827        C828   1.400       .  A
C827        F832   1.358       .  S
C828        C829   1.415       .  A
C828        F844   1.356       .  S
C829        C830   1.414       .  A
C830        F833   1.355       .  S
C831        C834   1.405       .  A
C831        C838   1.404   1_556  A
C834        C835   1.398       .  A
C834        F839   1.358       .  S
C835        C836   1.408   1_556  A
C835        F841   1.357       .  S
C836        C837   1.410       .  A
C837        C838   1.399       .  A
C837        F840   1.358       .  S
C838        F842   1.358       .  S
C845        C846   1.407       .  A
C845        C850   1.401       .  A
C845        F863   1.358       .  S
C846        C847   1.406       .  A
C846        C851   1.484       .  S
C847        C848   1.397       .  A
C847        F852   1.358       .  S
C848        C849   1.404       .  A
C848        F864   1.358       .  S
C849        C850   1.406       .  A
C850        F853   1.358       .  S
C851        C854   1.406       .  A
C851        C858   1.406       .  A
C854        C855   1.401       .  A
C854        F859   1.358       .  S
C855        C856   1.409       .  A
C855        F861   1.357       .  S
C856        C857   1.407       .  A
C857        C858   1.397       .  A
C857        F860   1.357       .  S
C858        F862   1.358       .  S
