geometry optimzed in LAMMPS
_audit_creation_date              2020-11-30 
_audit_creation_method            'lammps2cif' 
_symmetry_space_group_name_H-M    'P1' 
_symmetry_Int_Tables_number       1 
_symmetry_cell_setting            triclinic 
loop_ 
_symmetry_equiv_pos_as_xyz 
  x,y,z 
_cell_length_a                    42.04813968 
_cell_length_b                    54.99071861097437 
_cell_length_c                    41.673397452422265 
_cell_angle_alpha                 89.92780613215183 
_cell_angle_beta                  89.95517090609263 
_cell_angle_gamma                 89.95157446135744 
loop_ 
_atom_site_label 
_atom_site_type_symbol 
_atom_site_fract_x 
_atom_site_fract_y 
_atom_site_fract_z 
_atom_site_charge 
N1          N  0.46336181  0.47255963  0.43936863    -0.06800
N2          N  0.45825220  0.45492484  0.41852239    -0.59000
N3          N  0.44127066  0.02831019  0.46168981    -0.06500
N4          N  0.42073701  0.04605091  0.45669984    -0.61100
N5          N  0.46345883  0.02840738  0.43943082    -0.06100
N6          N  0.45846331  0.04624208  0.41879537    -0.58900
N7          N  0.44134881  0.47243232  0.46181735    -0.05800
N8          N  0.42092347  0.45462703  0.45682850    -0.61400
C9          C  0.43177338  0.44382503  0.42979166     0.95300
C10         C  0.43177056  0.05713596  0.42993680     0.95100
N11         N  0.46262357  0.02840923  0.05961486    -0.07000
N12         N  0.45749035  0.04616914  0.08024651    -0.59500
N13         N  0.44067341  0.47261048  0.03737244    -0.05100
N14         N  0.41997037  0.45498194  0.04238795    -0.60800
N15         N  0.46281930  0.47241183  0.05964885    -0.07000
N16         N  0.45778434  0.45449783  0.08015785    -0.59800
N17         N  0.44072684  0.02850304  0.03709432    -0.04800
N18         N  0.42028375  0.04638379  0.04188966    -0.60900
Mn19       Mn  0.44002079  0.50045678  0.99948130     1.18400
C20         C  0.43107696  0.05729126  0.06886896     0.97400
C21         C  0.43100415  0.44376967  0.06906388     0.98100
N22         N  0.03836084  0.02830383  0.43980746    -0.07100
N23         N  0.04349338  0.04605092  0.41910712    -0.63400
N24         N  0.06014152  0.47235018  0.46253861    -0.05900
N25         N  0.08047371  0.45439479  0.45781081    -0.64000
N26         N  0.03829448  0.47250020  0.43996318    -0.06600
N27         N  0.04338885  0.45474895  0.41931832    -0.63600
N28         N  0.06027246  0.02834119  0.46231201    -0.05500
N29         N  0.08072192  0.04617205  0.45744950    -0.64300
Mn30       Mn  0.00089376  0.00045325  0.43860121     1.10700
C31         C  0.06992567  0.05710052  0.43045245     0.98700
C32         C  0.06969083  0.44354958  0.43079257     0.98700
N33         N  0.03763842  0.47253494  0.06024889    -0.06600
N34         N  0.04241184  0.45461012  0.08080850    -0.62000
N35         N  0.05978059  0.02850927  0.03776527    -0.05900
N36         N  0.08016466  0.04637128  0.04262968    -0.58700
N37         N  0.03756804  0.02859951  0.06000956    -0.07200
N38         N  0.04241363  0.04654241  0.08048450    -0.61500
N39         N  0.05974627  0.47247101  0.03791577    -0.06200
N40         N  0.07996103  0.45447013  0.04273156    -0.58700
Mn41       Mn  0.00016248  0.00048919  0.06093732     1.20200
Mn42       Mn  0.06101457  0.00041452  0.00015449     1.10100
Cl43       Cl  0.00052583  0.00045214  0.99979503    -0.86700
C44         C  0.06884517  0.44343942  0.06952006     0.95700
C45         C  0.06904434  0.05752708  0.06931474     0.95500
N46         N  0.28832947  0.27861000  0.19036797    -0.06800
N47         N  0.29336623  0.29654093  0.16988595    -0.59000
N48         N  0.31039001  0.22250034  0.21286208    -0.06500
N49         N  0.33083183  0.20462246  0.20804747    -0.61100
N50         N  0.28849728  0.22261226  0.19033771    -0.06100
N51         N  0.29363294  0.20486716  0.16968331    -0.58900
N52         N  0.31047345  0.27839244  0.21264584    -0.05800
N53         N  0.33117771  0.29602497  0.20765781    -0.61400
C54         C  0.32014579  0.30725946  0.18099713     0.95300
C55         C  0.32004352  0.19373534  0.18105226     0.95100
N56         N  0.28764477  0.22254579  0.31052610    -0.07000
N57         N  0.29262289  0.20469388  0.33114000    -0.59500
N58         N  0.30979529  0.27852299  0.28819701    -0.05100
N59         N  0.33023552  0.29631499  0.29320295    -0.60800
N60         N  0.28778122  0.27839461  0.31064441    -0.07000
N61         N  0.29290578  0.29601550  0.33150792    -0.59800
N62         N  0.30983347  0.22264554  0.28826736    -0.04800
N63         N  0.33034990  0.20488971  0.29323630    -0.60900
Mn64       Mn  0.31110669  0.25052171  0.25050562     1.18400
C65         C  0.31930522  0.19379229  0.31998572     0.97400
C66         C  0.31939499  0.30710766  0.32024948     0.98100
N67         N  0.21354815  0.22244867  0.18993669    -0.07100
N68         N  0.20868408  0.20452687  0.16943372    -0.63400
N69         N  0.19140466  0.27857194  0.21209093    -0.05900
N70         N  0.17121121  0.29659106  0.20730069    -0.64000
N71         N  0.21351566  0.27851340  0.18976121    -0.06600
N72         N  0.20876576  0.29645978  0.16922924    -0.63600
N73         N  0.19133473  0.22253319  0.21218043    -0.05500
N74         N  0.17093199  0.20468844  0.20728753    -0.64300
Mn75       Mn  0.25097241  0.25054527  0.18904394     1.10700
C76         C  0.18204102  0.19354926  0.18058566     0.98700
C77         C  0.18234386  0.30763832  0.18053112     0.98700
N78         N  0.21284456  0.27848509  0.31003873    -0.06600
N79         N  0.20776002  0.29623433  0.33068998    -0.62000
N80         N  0.19083395  0.22265867  0.28764174    -0.05900
N81         N  0.17036817  0.20483703  0.29249840    -0.58700
N82         N  0.21274349  0.22268155  0.31014858    -0.07200
N83         N  0.20759427  0.20493410  0.33084318    -0.61500
N84         N  0.19100033  0.27864974  0.28746072    -0.06200
N85         N  0.17068124  0.29661275  0.29219193    -0.58700
Mn86       Mn  0.25022879  0.25051630  0.31138144     1.20200
Mn87       Mn  0.19011405  0.25060539  0.24982161     1.10100
Cl88       Cl  0.25060246  0.25054723  0.25018683    -0.86700
C89         C  0.18146747  0.30744749  0.31921540     0.95700
C90         C  0.18115399  0.19389897  0.31949361     0.95500
C91         C  0.09311828  0.13500776  0.17457807    -0.18500
C92         C  0.07700228  0.11627533  0.15877109    -0.20700
C93         C  0.08892039  0.10670140  0.12995915     0.19900
C94         C  0.11737884  0.11611216  0.11693799    -0.03600
C95         C  0.13366268  0.13501001  0.13290852    -0.06700
C96         C  0.12143843  0.14449098  0.16185512     0.20200
C97         C  0.16212354  0.14441863  0.11989018     0.18400
C98         C  0.17403823  0.13484799  0.09107458    -0.18200
C99         C  0.15792249  0.11611481  0.07526790    -0.20400
C100        C  0.12960572  0.10662790  0.08799444     0.19900
C101        C  0.11341640  0.08774362  0.07237878    -0.33400
C102        C  0.08518127  0.07812760  0.08532675     0.00600
C103        C  0.07299126  0.08780587  0.11404908    -0.24800
C104        C  0.13763816  0.16336381  0.17748249    -0.29300
C105        C  0.16588199  0.17297182  0.16454469     0.06200
C106        C  0.17806302  0.16330391  0.13581203    -0.28000
H107        H  0.08341050  0.14209304  0.19677646     0.11000
H108        H  0.05520289  0.10925789  0.16910716     0.12100
H109        H  0.19583828  0.14186488  0.08073927     0.11200
H110        H  0.16763126  0.10902838  0.05307052     0.10400
H111        H  0.12297809  0.08039950  0.05024968     0.15800
H112        H  0.05125776  0.08049430  0.12419760     0.11700
H113        H  0.12808117  0.17070191  0.19961753     0.14600
H114        H  0.19980158  0.17061113  0.12566989     0.14300
C115        C  0.09741477  0.13100687  0.32174862    -0.18500
C116        C  0.08157448  0.11208903  0.33749922    -0.20700
C117        C  0.09142371  0.10446773  0.36806959     0.19900
C118        C  0.11753146  0.11596951  0.38292378    -0.03600
C119        C  0.13352229  0.13504373  0.36702685    -0.06700
C120        C  0.12335800  0.14261217  0.33631702     0.20200
C121        C  0.15963121  0.14654392  0.38188073     0.18400
C122        C  0.16947957  0.13892361  0.41245171    -0.18200
C123        C  0.15363896  0.12000666  0.42820257    -0.20400
C124        C  0.12769687  0.10840106  0.41363321     0.19900
C125        C  0.11184423  0.08929278  0.42915755    -0.33400
C126        C  0.08591454  0.07769504  0.41442172     0.00600
C127        C  0.07572679  0.08547219  0.38396689    -0.24800
C128        C  0.13921498  0.16171843  0.32079061    -0.29300
C129        C  0.16514921  0.17331176  0.33552507     0.06200
C130        C  0.17533254  0.16553564  0.36598177    -0.28000
H131        H  0.08934066  0.13658779  0.29817354     0.11000
H132        H  0.06159946  0.10341357  0.32576172     0.12100
H133        H  0.18945525  0.14759855  0.42418869     0.11200
H134        H  0.16171366  0.11442528  0.45177769     0.10400
H135        H  0.11976124  0.08340918  0.45267411     0.15800
H136        H  0.05578765  0.07656471  0.37244538     0.11700
H137        H  0.13130084  0.16760197  0.29727315     0.14600
H138        H  0.19527471  0.17443990  0.37750305     0.14300
C139        C  0.08161434  0.38871463  0.16274118    -0.18500
C140        C  0.09806081  0.37014472  0.17860870    -0.20700
C141        C  0.12416801  0.35875114  0.16395029     0.19900
C142        C  0.13392110  0.36619663  0.13305527    -0.03600
C143        C  0.11731383  0.38492163  0.11703775    -0.06700
C144        C  0.09103034  0.39621896  0.13197015     0.20200
C145        C  0.12706410  0.39236407  0.08614070     0.18400
C146        C  0.15317404  0.38097320  0.07148407    -0.18200
C147        C  0.16962107  0.36240424  0.08735182    -0.20400
C148        C  0.16020223  0.35489770  0.11812075     0.19900
C149        C  0.17638600  0.33613394  0.13407526    -0.33400
C150        C  0.16644215  0.32835927  0.16462702     0.00600
C151        C  0.14048790  0.33989093  0.17951466    -0.24800
C152        C  0.07483626  0.41497437  0.11600742    -0.29300
C153        C  0.08477074  0.42273968  0.08544809     0.06200
C154        C  0.11073369  0.41121437  0.07056803    -0.28000
H155        H  0.06152756  0.39722611  0.17455696     0.11000
H156        H  0.09030090  0.36464460  0.20233316     0.12100
H157        H  0.16093252  0.38647207  0.04775857     0.11200
H158        H  0.18970703  0.35389195  0.07553522     0.10400
H159        H  0.19636806  0.32730511  0.12245806     0.15800
H160        H  0.13278401  0.33404713  0.20312945     0.11700
H161        H  0.05484890  0.42379947  0.12761955     0.14000
H162        H  0.11843210  0.41705176  0.04694891     0.14300
C163        C  0.34763743  0.12067798  0.07153598    -0.18500
C164        C  0.33182756  0.13949982  0.08751494    -0.20700
C165        C  0.34158912  0.14676765  0.11823683     0.19900
C166        C  0.36758435  0.13501400  0.13301326    -0.03600
C167        C  0.38354872  0.11603049  0.11688157    -0.06700
C168        C  0.37346707  0.10880034  0.08602234     0.20200
C169        C  0.40954263  0.10427637  0.13165972     0.18400
C170        C  0.41930609  0.11154530  0.16238009    -0.18200
C171        C  0.40349655  0.13036661  0.17835860    -0.20400
C172        C  0.37766529  0.14224231  0.16387318     0.19900
C173        C  0.36185782  0.16129755  0.17960490    -0.33400
C174        C  0.33603585  0.17315649  0.16492406     0.00600
C175        C  0.32592125  0.16567088  0.13434204    -0.24800
C176        C  0.38927054  0.08973983  0.07029504    -0.29300
C177        C  0.41508849  0.07787886  0.08498114     0.06200
C178        C  0.42520580  0.08536973  0.11555952    -0.28000
H179        H  0.33961809  0.11537814  0.04785168     0.11000
H180        H  0.31194084  0.14838106  0.07583048     0.12100
H181        H  0.43919287  0.10266373  0.17406530     0.11200
H182        H  0.41151540  0.13566643  0.20204291     0.10400
H183        H  0.36972135  0.16693862  0.20321894     0.15800
H184        H  0.30606937  0.17476171  0.12285222     0.11700
H185        H  0.38140606  0.08409509  0.04668290     0.14600
H186        H  0.44505504  0.07627796  0.12705338     0.14300
C187        C  0.41442309  0.39238952  0.33428326    -0.18500
C188        C  0.39834706  0.37347905  0.31883322    -0.20700
C189        C  0.37493429  0.36010435  0.33511652     0.19900
C190        C  0.36748282  0.36591776  0.36723337    -0.03600
C191        C  0.38371911  0.38498869  0.38282954    -0.06700
C192        C  0.40734826  0.39824378  0.36627354     0.20200
C193        C  0.37626561  0.39080402  0.41494556     0.18400
C194        C  0.35285552  0.37742717  0.43122978    -0.18200
C195        C  0.33677953  0.35851645  0.41577962    -0.20400
C196        C  0.34385138  0.35266400  0.38378806     0.19900
C197        C  0.32783846  0.33372407  0.36811432    -0.33400
C198        C  0.33543974  0.32766032  0.33625383     0.00600
C199        C  0.35896603  0.34094916  0.31990175    -0.24800
C200        C  0.42335257  0.41718969  0.38194286    -0.29300
C201        C  0.41574469  0.42325910  0.41380005     0.06200
C202        C  0.39222542  0.40996580  0.43015605    -0.28000
H203        H  0.43242386  0.40243225  0.32120627     0.11000
H204        H  0.40428234  0.36927520  0.29414594     0.12100
H205        H  0.34691956  0.38163156  0.45591695     0.11200
H206        H  0.31877824  0.34847396  0.42885636     0.10400
H207        H  0.30981058  0.32346297  0.38088093     0.15800
H208        H  0.36483013  0.33640316  0.29528768     0.11700
H209        H  0.44137617  0.42745316  0.36917364     0.14600
H210        H  0.38635751  0.41451558  0.45476841     0.14300
C211        C  0.32653898  0.13417101  0.40840483    -0.18500
C212        C  0.34260097  0.11530697  0.42404637    -0.20700
C213        C  0.37111865  0.10608086  0.41145335     0.19900
C214        C  0.38362681  0.11593793  0.38283425    -0.03600
C215        C  0.36741733  0.13495772  0.36705039    -0.06700
C216        C  0.33875064  0.14412011  0.37993274     0.20200
C217        C  0.37992721  0.14481692  0.33843337     0.18400
C218        C  0.40844293  0.13558868  0.32583838    -0.18200
C219        C  0.42450477  0.11672425  0.34147964    -0.20400
C220        C  0.41229522  0.10677696  0.36995374     0.19900
C221        C  0.42813816  0.08774477  0.38566704    -0.33400
C222        C  0.41565551  0.07773117  0.41404497     0.00600
C223        C  0.38724196  0.08708251  0.42688338    -0.24800
C224        C  0.32291485  0.16315932  0.36422741    -0.29300
C225        C  0.33540351  0.17317985  0.33585661     0.06200
C226        C  0.36381102  0.16382286  0.32301129    -0.28000
H227        H  0.30456961  0.14100183  0.41860257     0.11000
H228        H  0.33269873  0.10791434  0.44599876     0.12100
H229        H  0.41834631  0.14298216  0.30388732     0.11200
H230        H  0.44647431  0.10989397  0.33128216     0.10400
H231        H  0.45004999  0.08061852  0.37566536     0.15800
H232        H  0.37749591  0.07945032  0.44877817     0.11700
H233        H  0.30100685  0.17028859  0.37423313     0.14600
H234        H  0.37356098  0.17145940  0.30112087     0.14300
C235        C  0.16556201  0.35887278  0.41478563    -0.18500
C236        C  0.14959883  0.37767468  0.43063118    -0.20700
C237        C  0.12562966  0.39086962  0.41493228     0.19900
C238        C  0.11752787  0.38497989  0.38299878    -0.03600
C239        C  0.13364643  0.36602581  0.36700681    -0.06700
C240        C  0.15781307  0.35296102  0.38299057     0.20200
C241        C  0.12554483  0.36013671  0.33507315     0.18400
C242        C  0.10157575  0.37333157  0.31937417    -0.18200
C243        C  0.08561096  0.39213207  0.33522055    -0.20400
C244        C  0.09335975  0.39804318  0.36701578     0.19900
C245        C  0.07748299  0.41687140  0.38303767    -0.33400
C246        C  0.08570155  0.42302673  0.41468804     0.00600
C247        C  0.10973959  0.40992536  0.43052726    -0.24800
C248        C  0.17368680  0.33413043  0.36696973    -0.29300
C249        C  0.16546736  0.32797538  0.33531962     0.06200
C250        C  0.14143327  0.34108039  0.31947881    -0.28000
H251        H  0.18400776  0.34896157  0.42740057     0.11000
H252        H  0.15605512  0.38193561  0.45515564     0.12100
H253        H  0.09511965  0.36907097  0.29484960     0.11200
H254        H  0.06716434  0.40204238  0.32260639     0.10400
H255        H  0.05904447  0.42698461  0.37066637     0.15800
H256        H  0.11608553  0.41456063  0.45497755     0.11700
H257        H  0.19212281  0.32401442  0.37934200     0.14600
H258        H  0.13508655  0.33644576  0.29502832     0.14300
C259        C  0.41693891  0.35559329  0.16052495    -0.18500
C260        C  0.43258116  0.37449874  0.14452961    -0.20700
C261        C  0.41604328  0.38938049  0.12283075     0.19900
C262        C  0.38346460  0.38506019  0.11697933    -0.03600
C263        C  0.36767663  0.36599754  0.13313505    -0.06700
C264        C  0.38449924  0.35125754  0.15508556     0.20200
C265        C  0.33509863  0.36167654  0.12728144     0.18400
C266        C  0.31855962  0.37655956  0.10558532    -0.18200
C267        C  0.33420203  0.39546399  0.08958910    -0.20400
C268        C  0.36664251  0.39979771  0.09502578     0.19900
C269        C  0.38252116  0.41866801  0.07901414    -0.33400
C270        C  0.41484140  0.42326776  0.08508511     0.00600
C271        C  0.43145733  0.40856957  0.10700437    -0.24800
C272        C  0.36862297  0.33237993  0.17108598    -0.29300
C273        C  0.33630521  0.32777632  0.16500598     0.06200
C274        C  0.31968738  0.34248192  0.14309714    -0.28000
H275        H  0.43021432  0.34437620  0.17720431     0.11000
H276        H  0.45761464  0.37752572  0.14920105     0.12100
H277        H  0.29352617  0.37353244  0.10091334     0.11200
H278        H  0.32092718  0.40667982  0.07290819     0.10400
H279        H  0.36957419  0.43005473  0.06224830     0.15800
H280        H  0.45642373  0.41200835  0.11163431     0.11700
H281        H  0.38157096  0.32098844  0.18784555     0.14600
H282        H  0.29472278  0.33904123  0.13846139     0.14300
N283        N  0.46336183  0.47255958  0.93936866    -0.06800
N284        N  0.45825221  0.45492487  0.91852233    -0.59000
N285        N  0.44127056  0.02831017  0.96168988    -0.06500
N286        N  0.42073700  0.04605093  0.95669995    -0.61100
N287        N  0.46345881  0.02840739  0.93943092    -0.06100
N288        N  0.45846328  0.04624206  0.91879546    -0.58900
N289        N  0.44134883  0.47243232  0.96181742    -0.05800
N290        N  0.42092359  0.45462702  0.95682847    -0.61400
C291        C  0.43177341  0.44382507  0.92979156     0.95300
C292        C  0.43177054  0.05713598  0.92993688     0.95100
N293        N  0.46262364  0.02840931  0.55961480    -0.07000
N294        N  0.45749033  0.04616915  0.58024652    -0.59500
N295        N  0.44067338  0.47261049  0.53737242    -0.05100
N296        N  0.41997041  0.45498190  0.54238798    -0.60800
N297        N  0.46281930  0.47241190  0.55964878    -0.07000
N298        N  0.45778436  0.45449788  0.58015774    -0.59800
N299        N  0.44072685  0.02850308  0.53709423    -0.04800
N300        N  0.42028380  0.04638378  0.54188961    -0.60900
Mn301      Mn  0.44002077  0.50045676  0.49948127     1.18400
C302        C  0.43107691  0.05729126  0.56886900     0.97400
C303        C  0.43100419  0.44376966  0.56906387     0.98100
N304        N  0.03836071  0.02830390  0.93980747    -0.07100
N305        N  0.04349346  0.04605088  0.91910711    -0.63400
N306        N  0.06014153  0.47235018  0.96253863    -0.05900
N307        N  0.08047367  0.45439476  0.95781083    -0.64000
N308        N  0.03829454  0.47250023  0.93996313    -0.06600
N309        N  0.04338890  0.45474902  0.91931824    -0.63600
N310        N  0.06027242  0.02834123  0.96231197    -0.05500
N311        N  0.08072196  0.04617204  0.95744947    -0.64300
Mn312      Mn  0.00089373  0.00045329  0.93860114     1.10700
C313        C  0.06992564  0.05710059  0.93045254     0.98700
C314        C  0.06969080  0.44354958  0.93079255     0.98700
N315        N  0.03763840  0.47253496  0.56024881    -0.06600
N316        N  0.04241179  0.45461016  0.58080850    -0.62000
N317        N  0.05978062  0.02850930  0.53776526    -0.05900
N318        N  0.08016478  0.04637128  0.54262972    -0.58700
N319        N  0.03756818  0.02859941  0.56000961    -0.07200
N320        N  0.04241363  0.04654242  0.58048446    -0.61500
N321        N  0.05974636  0.47247105  0.53791584    -0.06200
N322        N  0.07996098  0.45447009  0.54273168    -0.58700
Mn323      Mn  0.00016250  0.00048916  0.56093730     1.20200
Mn324      Mn  0.06101460  0.00041448  0.50015452     1.10100
Cl325      Cl  0.00052589  0.00045215  0.49979503    -0.86700
C326        C  0.06884516  0.44343945  0.56952023     0.95700
C327        C  0.06904441  0.05752705  0.56931477     0.95500
N328        N  0.28832955  0.27861000  0.69036803    -0.06800
N329        N  0.29336626  0.29654098  0.66988604    -0.59000
N330        N  0.31039012  0.22250030  0.71286216    -0.06500
N331        N  0.33083191  0.20462243  0.70804752    -0.61100
N332        N  0.28849741  0.22261227  0.69033770    -0.06100
N333        N  0.29363297  0.20486722  0.66968327    -0.58900
N334        N  0.31047354  0.27839242  0.71264586    -0.05800
N335        N  0.33117776  0.29602498  0.70765772    -0.61400
C336        C  0.32014588  0.30725946  0.68099701     0.95300
C337        C  0.32004351  0.19373536  0.68105230     0.95100
N338        N  0.28764479  0.22254575  0.81052611    -0.07000
N339        N  0.29262290  0.20469379  0.83113994    -0.59500
N340        N  0.30979537  0.27852297  0.78819701    -0.05100
N341        N  0.33023561  0.29631492  0.79320295    -0.60800
N342        N  0.28778129  0.27839459  0.81064446    -0.07000
N343        N  0.29290576  0.29601550  0.83150797    -0.59800
N344        N  0.30983356  0.22264559  0.78826742    -0.04800
N345        N  0.33034994  0.20488972  0.79323624    -0.60900
Mn346      Mn  0.31110676  0.25052169  0.75050563     1.18400
C347        C  0.31930527  0.19379226  0.81998566     0.97400
C348        C  0.31939492  0.30710768  0.82024941     0.98100
N349        N  0.21354811  0.22244873  0.68993667    -0.07100
N350        N  0.20868401  0.20452692  0.66943377    -0.63400
N351        N  0.19140466  0.27857196  0.71209096    -0.05900
N352        N  0.17121121  0.29659108  0.70730066    -0.64000
N353        N  0.21351566  0.27851342  0.68976127    -0.06600
N354        N  0.20876576  0.29645978  0.66922927    -0.63600
N355        N  0.19133477  0.22253320  0.71218051    -0.05500
N356        N  0.17093196  0.20468851  0.70728754    -0.64300
Mn357      Mn  0.25097244  0.25054525  0.68904390     1.10700
C358        C  0.18204097  0.19354928  0.68058571     0.98700
C359        C  0.18234378  0.30763827  0.68053103     0.98700
N360        N  0.21284459  0.27848511  0.81003882    -0.06600
N361        N  0.20776012  0.29623441  0.83068998    -0.62000
N362        N  0.19083388  0.22265872  0.78764184    -0.05900
N363        N  0.17036823  0.20483700  0.79249835    -0.58700
N364        N  0.21274357  0.22268150  0.81014855    -0.07200
N365        N  0.20759433  0.20493408  0.83084322    -0.61500
N366        N  0.19100034  0.27864970  0.78746074    -0.06200
N367        N  0.17068126  0.29661268  0.79219188    -0.58700
Mn368      Mn  0.25022880  0.25051630  0.81138140     1.20200
Mn369      Mn  0.19011406  0.25060538  0.74982163     1.10100
Cl370      Cl  0.25060248  0.25054724  0.75018684    -0.86700
C371        C  0.18146745  0.30744747  0.81921541     0.95700
C372        C  0.18115404  0.19389897  0.81949363     0.95500
C373        C  0.09311824  0.13500771  0.67457802    -0.18500
C374        C  0.07700227  0.11627530  0.65877099    -0.20700
C375        C  0.08892047  0.10670148  0.62995903     0.19900
C376        C  0.11737888  0.11611210  0.61693804    -0.03600
C377        C  0.13366264  0.13501001  0.63290855    -0.06700
C378        C  0.12143837  0.14449096  0.66185519     0.20200
C379        C  0.16212337  0.14441860  0.61989024     0.18400
C380        C  0.17403802  0.13484793  0.59107463    -0.18200
C381        C  0.15792232  0.11611471  0.57526795    -0.20400
C382        C  0.12960566  0.10662784  0.58799432     0.19900
C383        C  0.11341648  0.08774353  0.57237871    -0.33400
C384        C  0.08518144  0.07812758  0.58532665     0.00600
C385        C  0.07299139  0.08780591  0.61404897    -0.24800
C386        C  0.13763804  0.16336375  0.67748259    -0.29300
C387        C  0.16588190  0.17297181  0.66454477     0.06200
C388        C  0.17806295  0.16330386  0.63581204    -0.28000
H389        H  0.08341031  0.14209291  0.69677650     0.11000
H390        H  0.05520289  0.10925793  0.66910668     0.12100
H391        H  0.19583770  0.14186497  0.58073941     0.11200
H392        H  0.16763098  0.10902843  0.55307019     0.10400
H393        H  0.12297847  0.08039920  0.55024961     0.15800
H394        H  0.05125788  0.08049449  0.62419713     0.11700
H395        H  0.12808079  0.17070190  0.69961764     0.14600
H396        H  0.19980149  0.17061106  0.62566982     0.14300
C397        C  0.09741467  0.13100685  0.82174829    -0.18500
C398        C  0.08157444  0.11208899  0.83749900    -0.20700
C399        C  0.09142362  0.10446767  0.86806955     0.19900
C400        C  0.11753144  0.11596945  0.88292376    -0.03600
C401        C  0.13352229  0.13504367  0.86702673    -0.06700
C402        C  0.12335792  0.14261217  0.83631675     0.20200
C403        C  0.15963116  0.14654393  0.88188061     0.18400
C404        C  0.16947955  0.13892365  0.91245155    -0.18200
C405        C  0.15363897  0.12000670  0.92820241    -0.20400
C406        C  0.12769698  0.10840095  0.91363326     0.19900
C407        C  0.11184436  0.08929273  0.92915760    -0.33400
C408        C  0.08591452  0.07769501  0.91442180     0.00600
C409        C  0.07572671  0.08547210  0.88396684    -0.24800
C410        C  0.13921503  0.16171843  0.82079052    -0.29300
C411        C  0.16514919  0.17331180  0.83552508     0.06200
C412        C  0.17533256  0.16553562  0.86598173    -0.28000
H413        H  0.08934024  0.13658786  0.79817286     0.11000
H414        H  0.06159946  0.10341341  0.82576175     0.12100
H415        H  0.18945514  0.14759856  0.92418824     0.11200
H416        H  0.16171383  0.11442537  0.95177767     0.10400
H417        H  0.11976152  0.08340908  0.95267452     0.15800
H418        H  0.05578698  0.07656481  0.87244549     0.11700
H419        H  0.13130091  0.16760202  0.79727303     0.14600
H420        H  0.19527461  0.17444005  0.87750323     0.14300
C421        C  0.08161423  0.38871464  0.66274130    -0.18500
C422        C  0.09806076  0.37014473  0.67860865    -0.20700
C423        C  0.12416798  0.35875123  0.66395015     0.19900
C424        C  0.13392094  0.36619673  0.63305526    -0.03600
C425        C  0.11731372  0.38492174  0.61703792    -0.06700
C426        C  0.09103015  0.39621902  0.63197038     0.20200
C427        C  0.12706399  0.39236408  0.58614089     0.18400
C428        C  0.15317397  0.38097319  0.57148418    -0.18200
C429        C  0.16962101  0.36240420  0.58735189    -0.20400
C430        C  0.16020208  0.35489785  0.61812086     0.19900
C431        C  0.17638588  0.33613399  0.63407534    -0.33400
C432        C  0.16644210  0.32835935  0.66462706     0.00600
C433        C  0.14048782  0.33989094  0.67951459    -0.24800
C434        C  0.07483621  0.41497435  0.61600763    -0.29300
C435        C  0.08477067  0.42273967  0.58544835     0.06200
C436        C  0.11073366  0.41121441  0.57056829    -0.28000
H437        H  0.06152731  0.39722615  0.67455734     0.11000
H438        H  0.09030092  0.36464450  0.70233299     0.12100
H439        H  0.16093247  0.38647191  0.54775853     0.11200
H440        H  0.18970688  0.35389186  0.57553555     0.10400
H441        H  0.19636798  0.32730551  0.62245861     0.15800
H442        H  0.13278384  0.33404708  0.70312894     0.11700
H443        H  0.05484874  0.42379944  0.62761984     0.14000
H444        H  0.11843207  0.41705184  0.54694943     0.14300
C445        C  0.34763741  0.12067797  0.57153615    -0.18500
C446        C  0.33182753  0.13949982  0.58751500    -0.20700
C447        C  0.34158903  0.14676776  0.61823674     0.19900
C448        C  0.36758423  0.13501401  0.63301328    -0.03600
C449        C  0.38354868  0.11603053  0.61688159    -0.06700
C450        C  0.37346708  0.10880035  0.58602244     0.20200
C451        C  0.40954246  0.10427643  0.63165971     0.18400
C452        C  0.41930613  0.11154529  0.66238008    -0.18200
C453        C  0.40349661  0.13036655  0.67835863    -0.20400
C454        C  0.37766536  0.14224237  0.66387326     0.19900
C455        C  0.36185783  0.16129756  0.67960499    -0.33400
C456        C  0.33603586  0.17315660  0.66492406     0.00600
C457        C  0.32592115  0.16567094  0.63434197    -0.24800
C458        C  0.38927041  0.08973982  0.57029498    -0.29300
C459        C  0.41508835  0.07787890  0.58498109     0.06200
C460        C  0.42520573  0.08536981  0.61555946    -0.28000
H461        H  0.33961810  0.11537809  0.54785226     0.11000
H462        H  0.31194084  0.14838108  0.57583012     0.12100
H463        H  0.43919282  0.10266374  0.67406485     0.11200
H464        H  0.41151554  0.13566601  0.70204339     0.10400
H465        H  0.36972170  0.16693874  0.70321900     0.15800
H466        H  0.30606937  0.17476185  0.62285189     0.11700
H467        H  0.38140583  0.08409504  0.54668290     0.14600
H468        H  0.44505486  0.07627810  0.62705303     0.14300
C469        C  0.41442310  0.39238945  0.83428314    -0.18500
C470        C  0.39834714  0.37347902  0.81883293    -0.20700
C471        C  0.37493444  0.36010428  0.83511602     0.19900
C472        C  0.36748296  0.36591775  0.86723314    -0.03600
C473        C  0.38371912  0.38498866  0.88282942    -0.06700
C474        C  0.40734815  0.39824372  0.86627353     0.20200
C475        C  0.37626571  0.39080397  0.91494563     0.18400
C476        C  0.35285566  0.37742723  0.93122983    -0.18200
C477        C  0.33677967  0.35851653  0.91577960    -0.20400
C478        C  0.34385167  0.35266412  0.88378786     0.19900
C479        C  0.32783860  0.33372418  0.86811419    -0.33400
C480        C  0.33543984  0.32766036  0.83625355     0.00600
C481        C  0.35896610  0.34094911  0.81990146    -0.24800
C482        C  0.42335250  0.41718965  0.88194282    -0.29300
C483        C  0.41574470  0.42325916  0.91379998     0.06200
C484        C  0.39222552  0.40996583  0.93015598    -0.28000
H485        H  0.43242367  0.40243235  0.82120638     0.11000
H486        H  0.40428271  0.36927506  0.79414518     0.12100
H487        H  0.34691983  0.38163140  0.95591743     0.11200
H488        H  0.31877878  0.34847402  0.92885596     0.10400
H489        H  0.30981083  0.32346323  0.88088063     0.15800
H490        H  0.36483020  0.33640307  0.79528689     0.11700
H491        H  0.44137596  0.42745306  0.86917346     0.14600
H492        H  0.38635761  0.41451564  0.95476834     0.14300
C493        C  0.32653897  0.13417106  0.90840475    -0.18500
C494        C  0.34260096  0.11530699  0.92404616    -0.20700
C495        C  0.37111868  0.10608091  0.91145322     0.19900
C496        C  0.38362679  0.11593796  0.88283413    -0.03600
C497        C  0.36741736  0.13495777  0.86705025    -0.06700
C498        C  0.33875055  0.14412024  0.87993278     0.20200
C499        C  0.37992733  0.14481694  0.83843306     0.18400
C500        C  0.40844313  0.13558868  0.82583816    -0.18200
C501        C  0.42450485  0.11672424  0.84147956    -0.20400
C502        C  0.41229512  0.10677704  0.86995378     0.19900
C503        C  0.42813802  0.08774484  0.88566722    -0.33400
C504        C  0.41565530  0.07773118  0.91404510     0.00600
C505        C  0.38724186  0.08708254  0.92688340    -0.24800
C506        C  0.32291477  0.16315939  0.86422746    -0.29300
C507        C  0.33540355  0.17317991  0.83585667     0.06200
C508        C  0.36381100  0.16382284  0.82301118    -0.28000
H509        H  0.30456954  0.14100195  0.91860292     0.11000
H510        H  0.33269878  0.10791429  0.94599814     0.12100
H511        H  0.41834648  0.14298211  0.80388656     0.11200
H512        H  0.44647471  0.10989399  0.83128258     0.10400
H513        H  0.45004939  0.08061858  0.87566568     0.15800
H514        H  0.37749571  0.07945034  0.94877825     0.11700
H515        H  0.30100687  0.17028907  0.87423355     0.14600
H516        H  0.37356061  0.17145926  0.80112030     0.14300
C517        C  0.16556198  0.35887280  0.91478570    -0.18500
C518        C  0.14959883  0.37767471  0.93063132    -0.20700
C519        C  0.12562968  0.39086970  0.91493256     0.19900
C520        C  0.11752778  0.38497997  0.88299878    -0.03600
C521        C  0.13364623  0.36602589  0.86700680    -0.06700
C522        C  0.15781293  0.35296115  0.88299048     0.20200
C523        C  0.12554468  0.36013677  0.83507294     0.18400
C524        C  0.10157555  0.37333162  0.81937385    -0.18200
C525        C  0.08561073  0.39213208  0.83522016    -0.20400
C526        C  0.09335956  0.39804332  0.86701552     0.19900
C527        C  0.07748290  0.41687138  0.88303756    -0.33400
C528        C  0.08570151  0.42302678  0.91468799     0.00600
C529        C  0.10973955  0.40992537  0.93052739    -0.24800
C530        C  0.17368669  0.33413050  0.86696967    -0.29300
C531        C  0.16546725  0.32797541  0.83531952     0.06200
C532        C  0.14143327  0.34108043  0.81947876    -0.28000
H533        H  0.18400763  0.34896145  0.92740039     0.11000
H534        H  0.15605520  0.38193575  0.95515620     0.12100
H535        H  0.09511961  0.36907079  0.79484890     0.11200
H536        H  0.06716370  0.40204251  0.82260584     0.10400
H537        H  0.05904442  0.42698503  0.87066579     0.15800
H538        H  0.11608543  0.41456062  0.95497810     0.11700
H539        H  0.19212227  0.32401452  0.87934193     0.14600
H540        H  0.13508652  0.33644564  0.79502817     0.14300
C541        C  0.41693886  0.35559331  0.66052483    -0.18500
C542        C  0.43258111  0.37449881  0.64452950    -0.20700
C543        C  0.41604323  0.38938046  0.62283063     0.19900
C544        C  0.38346449  0.38506016  0.61697932    -0.03600
C545        C  0.36767651  0.36599753  0.63313500    -0.06700
C546        C  0.38449908  0.35125757  0.65508530     0.20200
C547        C  0.33509845  0.36167652  0.62728130     0.18400
C548        C  0.31855959  0.37655961  0.60558528    -0.18200
C549        C  0.33420192  0.39546401  0.58958895    -0.20400
C550        C  0.36664247  0.39979765  0.59502578     0.19900
C551        C  0.38252125  0.41866792  0.57901422    -0.33400
C552        C  0.41484148  0.42326775  0.58508513     0.00600
C553        C  0.43145732  0.40856964  0.60700437    -0.24800
C554        C  0.36862274  0.33238003  0.67108579    -0.29300
C555        C  0.33630490  0.32777645  0.66500572     0.06200
C556        C  0.31968707  0.34248201  0.64309703    -0.28000
H557        H  0.43021444  0.34437613  0.67720377     0.11000
H558        H  0.45761457  0.37752573  0.64920068     0.12100
H559        H  0.29352613  0.37353239  0.60091336     0.11200
H560        H  0.32092686  0.40667994  0.57290817     0.10400
H561        H  0.36957441  0.43005443  0.56224833     0.15800
H562        H  0.45642364  0.41200850  0.61163440     0.11700
H563        H  0.38157049  0.32098860  0.68784482     0.14600
H564        H  0.29472207  0.33904137  0.63846135     0.14300
N565        N  0.46336183  0.97255962  0.43936861    -0.06800
N566        N  0.45825222  0.95492487  0.41852231    -0.59000
N567        N  0.44127057  0.52831020  0.46168981    -0.06500
N568        N  0.42073695  0.54605095  0.45669986    -0.61100
N569        N  0.46345875  0.52840740  0.43943083    -0.06100
N570        N  0.45846327  0.54624211  0.41879540    -0.58900
N571        N  0.44134887  0.97243230  0.46181739    -0.05800
N572        N  0.42092347  0.95462707  0.45682852    -0.61400
C573        C  0.43177338  0.94382509  0.42979165     0.95300
C574        C  0.43177054  0.55713599  0.42993683     0.95100
N575        N  0.46262360  0.52840925  0.05961484    -0.07000
N576        N  0.45749038  0.54616912  0.08024656    -0.59500
N577        N  0.44067343  0.97261044  0.03737243    -0.05100
N578        N  0.41997036  0.95498190  0.04238799    -0.60800
N579        N  0.46281930  0.97241185  0.05964884    -0.07000
N580        N  0.45778439  0.95449780  0.08015781    -0.59800
N581        N  0.44072686  0.52850306  0.03709431    -0.04800
N582        N  0.42028375  0.54638377  0.04188970    -0.60900
Mn583      Mn  0.44002075  0.00045674  0.99948130     1.18400
C584        C  0.43107703  0.55729128  0.06886898     0.97400
C585        C  0.43100414  0.94376963  0.06906392     0.98100
N586        N  0.03836080  0.52830386  0.43980747    -0.07100
N587        N  0.04349337  0.54605094  0.41910712    -0.63400
N588        N  0.06014155  0.97235014  0.46253864    -0.05900
N589        N  0.08047372  0.95439474  0.45781086    -0.64000
N590        N  0.03829459  0.97250020  0.43996315    -0.06600
N591        N  0.04338880  0.95474888  0.41931834    -0.63600
N592        N  0.06027243  0.52834119  0.46231200    -0.05500
N593        N  0.08072192  0.54617203  0.45744948    -0.64300
Mn594      Mn  0.00089376  0.50045327  0.43860121     1.10700
C595        C  0.06992568  0.55710052  0.43045244     0.98700
C596        C  0.06969083  0.94354960  0.43079258     0.98700
N597        N  0.03763843  0.97253501  0.06024891    -0.06600
N598        N  0.04241182  0.95461017  0.08080851    -0.62000
N599        N  0.05978061  0.52850924  0.03776527    -0.05900
N600        N  0.08016464  0.54637127  0.04262969    -0.58700
N601        N  0.03756807  0.52859943  0.06000957    -0.07200
N602        N  0.04241360  0.54654234  0.08048450    -0.61500
N603        N  0.05974626  0.97247105  0.03791578    -0.06200
N604        N  0.07996099  0.95447014  0.04273157    -0.58700
Mn605      Mn  0.00016248  0.50048919  0.06093732     1.20200
Mn606      Mn  0.06101456  0.50041450  0.00015451     1.10100
Cl607      Cl  0.00052585  0.50045212  0.99979504    -0.86700
C608        C  0.06884513  0.94343943  0.06952006     0.95700
C609        C  0.06904429  0.55752705  0.06931475     0.95500
N610        N  0.28832946  0.77860997  0.19036799    -0.06800
N611        N  0.29336623  0.79654092  0.16988601    -0.59000
N612        N  0.31039005  0.72250036  0.21286210    -0.06500
N613        N  0.33083177  0.70462242  0.20804750    -0.61100
N614        N  0.28849730  0.72261222  0.19033775    -0.06100
N615        N  0.29363292  0.70486715  0.16968330    -0.58900
N616        N  0.31047345  0.77839241  0.21264585    -0.05800
N617        N  0.33117770  0.79602497  0.20765785    -0.61400
C618        C  0.32014584  0.80725942  0.18099713     0.95300
C619        C  0.32004351  0.69373536  0.18105222     0.95100
N620        N  0.28764479  0.72254582  0.31052611    -0.07000
N621        N  0.29262288  0.70469389  0.33114001    -0.59500
N622        N  0.30979531  0.77852301  0.28819701    -0.05100
N623        N  0.33023555  0.79631500  0.29320297    -0.60800
N624        N  0.28778122  0.77839463  0.31064441    -0.07000
N625        N  0.29290580  0.79601549  0.33150794    -0.59800
N626        N  0.30983349  0.72264556  0.28826739    -0.04800
N627        N  0.33034991  0.70488972  0.29323632    -0.60900
Mn628      Mn  0.31110668  0.75052171  0.25050565     1.18400
C629        C  0.31930521  0.69379228  0.31998572     0.97400
C630        C  0.31939501  0.80710764  0.32024951     0.98100
N631        N  0.21354810  0.72244869  0.18993673    -0.07100
N632        N  0.20868416  0.70452690  0.16943372    -0.63400
N633        N  0.19140458  0.77857192  0.21209095    -0.05900
N634        N  0.17121117  0.79659106  0.20730074    -0.64000
N635        N  0.21351555  0.77851338  0.18976121    -0.06600
N636        N  0.20876572  0.79645979  0.16922926    -0.63600
N637        N  0.19133466  0.72253320  0.21218042    -0.05500
N638        N  0.17093196  0.70468843  0.20728752    -0.64300
Mn639      Mn  0.25097236  0.75054521  0.18904397     1.10700
C640        C  0.18204110  0.69354930  0.18058566     0.98700
C641        C  0.18234372  0.80763821  0.18053102     0.98700
N642        N  0.21284451  0.77848507  0.31003872    -0.06600
N643        N  0.20776006  0.79623431  0.33068997    -0.62000
N644        N  0.19083392  0.72265868  0.28764176    -0.05900
N645        N  0.17036815  0.70483703  0.29249841    -0.58700
N646        N  0.21274348  0.72268155  0.31014858    -0.07200
N647        N  0.20759427  0.70493409  0.33084317    -0.61500
N648        N  0.19100026  0.77864975  0.28746070    -0.06200
N649        N  0.17068120  0.79661279  0.29219190    -0.58700
Mn650      Mn  0.25022878  0.75051631  0.31138142     1.20200
Mn651      Mn  0.19011405  0.75060538  0.24982163     1.10100
Cl652      Cl  0.25060242  0.75054721  0.25018684    -0.86700
C653        C  0.18146745  0.80744747  0.31921542     0.95700
C654        C  0.18115399  0.69389896  0.31949361     0.95500
C655        C  0.09311829  0.63500775  0.17457806    -0.18500
C656        C  0.07700225  0.61627534  0.15877111    -0.20700
C657        C  0.08892023  0.60670135  0.12995918     0.19900
C658        C  0.11737878  0.61611212  0.11693800    -0.03600
C659        C  0.13366270  0.63501002  0.13290851    -0.06700
C660        C  0.12143847  0.64449098  0.16185509     0.20200
C661        C  0.16212373  0.64441870  0.11989011     0.18400
C662        C  0.17403819  0.63484798  0.09107454    -0.18200
C663        C  0.15792242  0.61611478  0.07526792    -0.20400
C664        C  0.12960564  0.60662785  0.08799448     0.19900
C665        C  0.11341632  0.58774357  0.07237884    -0.33400
C666        C  0.08518115  0.57812754  0.08532682     0.00600
C667        C  0.07299114  0.58780584  0.11404911    -0.24800
C668        C  0.13763823  0.66336380  0.17748242    -0.29300
C669        C  0.16588221  0.67297188  0.16454460     0.06200
C670        C  0.17806328  0.66330401  0.13581196    -0.28000
H671        H  0.08341054  0.64209305  0.19677646     0.11000
H672        H  0.05520283  0.60925792  0.16910724     0.12100
H673        H  0.19583831  0.64186482  0.08073910     0.11200
H674        H  0.16763089  0.60902847  0.05307052     0.10400
H675        H  0.12297824  0.58039917  0.05024983     0.15800
H676        H  0.05125713  0.58049434  0.12419759     0.11700
H677        H  0.12808117  0.67070187  0.19961748     0.14600
H678        H  0.19980217  0.67061141  0.12566969     0.14300
C679        C  0.09741475  0.63100688  0.32174860    -0.18500
C680        C  0.08157453  0.61208904  0.33749932    -0.20700
C681        C  0.09142381  0.60446775  0.36806967     0.19900
C682        C  0.11753149  0.61596951  0.38292379    -0.03600
C683        C  0.13352225  0.63504371  0.36702683    -0.06700
C684        C  0.12335791  0.64261219  0.33631694     0.20200
C685        C  0.15963112  0.64654390  0.38188071     0.18400
C686        C  0.16947965  0.63892366  0.41245168    -0.18200
C687        C  0.15363907  0.62000670  0.42820259    -0.20400
C688        C  0.12769691  0.60840107  0.41363322     0.19900
C689        C  0.11184426  0.58929279  0.42915755    -0.33400
C690        C  0.08591457  0.57769504  0.41442172     0.00600
C691        C  0.07572683  0.58547220  0.38396690    -0.24800
C692        C  0.13921491  0.66171842  0.32079052    -0.29300
C693        C  0.16514908  0.67331174  0.33552499     0.06200
C694        C  0.17533244  0.66553561  0.36598171    -0.28000
H695        H  0.08934026  0.63658790  0.29817352     0.11000
H696        H  0.06159960  0.60341358  0.32576218     0.12100
H697        H  0.18945532  0.64759884  0.42418865     0.11200
H698        H  0.16171374  0.61442527  0.45177770     0.10400
H699        H  0.11976127  0.58340918  0.45267411     0.15800
H700        H  0.05578770  0.57656472  0.37244539     0.11700
H701        H  0.13130078  0.66760193  0.29727304     0.14600
H702        H  0.19527414  0.67443995  0.37750298     0.14300
C703        C  0.08161435  0.88871466  0.16274121    -0.18500
C704        C  0.09806083  0.87014474  0.17860871    -0.20700
C705        C  0.12416803  0.85875116  0.16395029     0.19900
C706        C  0.13392109  0.86619666  0.13305530    -0.03600
C707        C  0.11731381  0.88492165  0.11703779    -0.06700
C708        C  0.09103034  0.89621898  0.13197018     0.20200
C709        C  0.12706403  0.89236406  0.08614074     0.18400
C710        C  0.15317399  0.88097322  0.07148410    -0.18200
C711        C  0.16962103  0.86240426  0.08735183    -0.20400
C712        C  0.16020225  0.85489771  0.11812076     0.19900
C713        C  0.17638598  0.83613393  0.13407527    -0.33400
C714        C  0.16644217  0.82835926  0.16462702     0.00600
C715        C  0.14048789  0.83989092  0.17951465    -0.24800
C716        C  0.07483624  0.91497436  0.11600743    -0.29300
C717        C  0.08477078  0.92273971  0.08544812     0.06200
C718        C  0.11073365  0.91121435  0.07056804    -0.28000
H719        H  0.06152757  0.89722612  0.17455699     0.11000
H720        H  0.09030092  0.86464462  0.20233316     0.12100
H721        H  0.16093214  0.88647195  0.04775856     0.11200
H722        H  0.18970705  0.85389199  0.07553512     0.10400
H723        H  0.19636814  0.82730508  0.12245805     0.15800
H724        H  0.13278402  0.83404716  0.20312941     0.11700
H725        H  0.05484895  0.92379946  0.12761956     0.14000
H726        H  0.11843208  0.91705179  0.04694890     0.14300
C727        C  0.34763744  0.62067800  0.07153597    -0.18500
C728        C  0.33182757  0.63949984  0.08751493    -0.20700
C729        C  0.34158905  0.64676771  0.11823681     0.19900
C730        C  0.36758432  0.63501406  0.13301325    -0.03600
C731        C  0.38354867  0.61603055  0.11688153    -0.06700
C732        C  0.37346706  0.60880037  0.08602229     0.20200
C733        C  0.40954242  0.60427646  0.13165964     0.18400
C734        C  0.41930600  0.61154534  0.16238007    -0.18200
C735        C  0.40349649  0.63036663  0.17835863    -0.20400
C736        C  0.37766529  0.64224237  0.16387324     0.19900
C737        C  0.36185781  0.66129760  0.17960488    -0.33400
C738        C  0.33603581  0.67315655  0.16492400     0.00600
C739        C  0.32592117  0.66567095  0.13434201    -0.24800
C740        C  0.38927054  0.58973984  0.07029500    -0.29300
C741        C  0.41508843  0.57787888  0.08498111     0.06200
C742        C  0.42520568  0.58536980  0.11555953    -0.28000
H743        H  0.33961811  0.61537815  0.04785166     0.11000
H744        H  0.31194084  0.64838107  0.07583046     0.12100
H745        H  0.43919228  0.60266368  0.17406523     0.11200
H746        H  0.41151572  0.63566643  0.20204298     0.10400
H747        H  0.36972134  0.66693866  0.20321893     0.15800
H748        H  0.30606927  0.67476196  0.12285213     0.11700
H749        H  0.38140603  0.58409509  0.04668284     0.14600
H750        H  0.44505481  0.57627826  0.12705334     0.14300
C751        C  0.41442315  0.89238948  0.33428310    -0.18500
C752        C  0.39834719  0.87347900  0.31883301    -0.20700
C753        C  0.37493437  0.86010437  0.33511636     0.19900
C754        C  0.36748291  0.86591775  0.36723336    -0.03600
C755        C  0.38371914  0.88498868  0.38282952    -0.06700
C756        C  0.40734824  0.89824374  0.36627352     0.20200
C757        C  0.37626557  0.89080404  0.41494557     0.18400
C758        C  0.35285551  0.87742716  0.43122978    -0.18200
C759        C  0.33677953  0.85851644  0.41577964    -0.20400
C760        C  0.34385143  0.85266399  0.38378806     0.19900
C761        C  0.32783849  0.83372404  0.36811432    -0.33400
C762        C  0.33543976  0.82766032  0.33625381     0.00600
C763        C  0.35896611  0.84094912  0.31990178    -0.24800
C764        C  0.42335252  0.91718967  0.38194291    -0.29300
C765        C  0.41574457  0.92325918  0.41380010     0.06200
C766        C  0.39222535  0.90996581  0.43015608    -0.28000
H767        H  0.43242388  0.90243230  0.32120626     0.11000
H768        H  0.40428244  0.86927515  0.29414536     0.12100
H769        H  0.34691951  0.88163155  0.45591695     0.11200
H770        H  0.31877825  0.84847397  0.42885638     0.10400
H771        H  0.30981062  0.82346301  0.38088091     0.15800
H772        H  0.36483013  0.83640313  0.29528762     0.11700
H773        H  0.44137612  0.92745311  0.36917375     0.14600
H774        H  0.38635705  0.91451576  0.45476842     0.14300
C775        C  0.32653909  0.63417098  0.40840476    -0.18500
C776        C  0.34260100  0.61530694  0.42404634    -0.20700
C777        C  0.37111857  0.60608079  0.41145345     0.19900
C778        C  0.38362679  0.61593792  0.38283430    -0.03600
C779        C  0.36741734  0.63495772  0.36705037    -0.06700
C780        C  0.33875077  0.64412009  0.37993265     0.20200
C781        C  0.37992728  0.64481693  0.33843337     0.18400
C782        C  0.40844293  0.63558868  0.32583837    -0.18200
C783        C  0.42450475  0.61672428  0.34147966    -0.20400
C784        C  0.41229516  0.60677699  0.36995380     0.19900
C785        C  0.42813812  0.58774480  0.38566711    -0.33400
C786        C  0.41565543  0.57773116  0.41404504     0.00600
C787        C  0.38724190  0.58708249  0.42688344    -0.24800
C788        C  0.32291483  0.66315931  0.36422741    -0.29300
C789        C  0.33540357  0.67317986  0.33585662     0.06200
C790        C  0.36381103  0.66382280  0.32301125    -0.28000
H791        H  0.30457013  0.64100182  0.41860238     0.11000
H792        H  0.33269827  0.60791424  0.44599872     0.12100
H793        H  0.41834634  0.64298220  0.30388729     0.11200
H794        H  0.44647429  0.60989403  0.33128222     0.10400
H795        H  0.45004994  0.58061859  0.37566546     0.15800
H796        H  0.37749554  0.57945013  0.44877821     0.11700
H797        H  0.30100695  0.67028857  0.37423313     0.14600
H798        H  0.37356106  0.67145941  0.30112083     0.14300
C799        C  0.16556211  0.85887271  0.41478565    -0.18500
C800        C  0.14959895  0.87767459  0.43063123    -0.20700
C801        C  0.12562975  0.89086958  0.41493229     0.19900
C802        C  0.11752795  0.88497986  0.38299878    -0.03600
C803        C  0.13364649  0.86602580  0.36700682    -0.06700
C804        C  0.15781313  0.85296096  0.38299062     0.20200
C805        C  0.12554487  0.86013672  0.33507315     0.18400
C806        C  0.10157578  0.87333158  0.31937416    -0.18200
C807        C  0.08561100  0.89213208  0.33522055    -0.20400
C808        C  0.09335980  0.89804318  0.36701580     0.19900
C809        C  0.07748299  0.91687138  0.38303773    -0.33400
C810        C  0.08570156  0.92302677  0.41468807     0.00600
C811        C  0.10973960  0.90992534  0.43052728    -0.24800
C812        C  0.17368682  0.83413041  0.36696969    -0.29300
C813        C  0.16546737  0.82797538  0.33531960     0.06200
C814        C  0.14143328  0.84108041  0.31947879    -0.28000
H815        H  0.18400777  0.84896121  0.42740075     0.11000
H816        H  0.15605522  0.88193556  0.45515570     0.12100
H817        H  0.09511968  0.86907097  0.29484959     0.11200
H818        H  0.06716437  0.90204239  0.32260639     0.10400
H819        H  0.05904448  0.92698461  0.37066637     0.15800
H820        H  0.11608559  0.91456059  0.45497757     0.11700
H821        H  0.19212285  0.82401435  0.37934193     0.14600
H822        H  0.13508653  0.83644580  0.29502831     0.14300
C823        C  0.41693879  0.85559329  0.16052486    -0.18500
C824        C  0.43258108  0.87449874  0.14452956    -0.20700
C825        C  0.41604333  0.88938042  0.12283067     0.19900
C826        C  0.38346458  0.88506018  0.11697931    -0.03600
C827        C  0.36767655  0.86599745  0.13313495    -0.06700
C828        C  0.38449907  0.85125751  0.15508548     0.20200
C829        C  0.33509843  0.86167649  0.12728138     0.18400
C830        C  0.31855956  0.87655949  0.10558527    -0.18200
C831        C  0.33420199  0.89546390  0.08958905    -0.20400
C832        C  0.36664249  0.89979768  0.09502578     0.19900
C833        C  0.38252113  0.91866795  0.07901414    -0.33400
C834        C  0.41484139  0.92326770  0.08508517     0.00600
C835        C  0.43145734  0.90856951  0.10700443    -0.24800
C836        C  0.36862288  0.83237987  0.17108596    -0.29300
C837        C  0.33630502  0.82777635  0.16500598     0.06200
C838        C  0.31968725  0.84248186  0.14309704    -0.28000
H839        H  0.43021412  0.84437647  0.17720415     0.11000
H840        H  0.45761466  0.87752545  0.14920089     0.12100
H841        H  0.29352605  0.87353223  0.10091316     0.11200
H842        H  0.32092706  0.90667983  0.07290827     0.10400
H843        H  0.36957411  0.93005474  0.06224834     0.15800
H844        H  0.45642380  0.91200829  0.11163444     0.11700
H845        H  0.38157080  0.82098844  0.18784552     0.14600
H846        H  0.29472216  0.83904119  0.13846144     0.14300
N847        N  0.46336186  0.97255961  0.93936867    -0.06800
N848        N  0.45825222  0.95492488  0.91852236    -0.59000
N849        N  0.44127059  0.52831020  0.96168989    -0.06500
N850        N  0.42073701  0.54605094  0.95669996    -0.61100
N851        N  0.46345882  0.52840741  0.93943092    -0.06100
N852        N  0.45846328  0.54624206  0.91879545    -0.58900
N853        N  0.44134882  0.97243230  0.96181740    -0.05800
N854        N  0.42092358  0.95462699  0.95682846    -0.61400
C855        C  0.43177340  0.94382504  0.92979156     0.95300
C856        C  0.43177054  0.55713597  0.92993687     0.95100
N857        N  0.46262359  0.52840931  0.55961478    -0.07000
N858        N  0.45749033  0.54616915  0.58024650    -0.59500
N859        N  0.44067349  0.97261048  0.53737241    -0.05100
N860        N  0.41997047  0.95498194  0.54238798    -0.60800
N861        N  0.46281939  0.97241186  0.55964878    -0.07000
N862        N  0.45778439  0.95449788  0.58015777    -0.59800
N863        N  0.44072677  0.52850309  0.53709423    -0.04800
N864        N  0.42028377  0.54638383  0.54188961    -0.60900
Mn865      Mn  0.44002081  0.00045675  0.49948128     1.18400
C866        C  0.43107692  0.55729130  0.56886900     0.97400
C867        C  0.43100421  0.94376970  0.56906387     0.98100
N868        N  0.03836079  0.52830384  0.93980745    -0.07100
N869        N  0.04349343  0.54605089  0.91910710    -0.63400
N870        N  0.06014153  0.97235018  0.96253862    -0.05900
N871        N  0.08047369  0.95439476  0.95781082    -0.64000
N872        N  0.03829454  0.97250022  0.93996311    -0.06600
N873        N  0.04338893  0.95474901  0.91931822    -0.63600
N874        N  0.06027238  0.52834123  0.96231203    -0.05500
N875        N  0.08072194  0.54617203  0.95744947    -0.64300
Mn876      Mn  0.00089374  0.50045328  0.93860117     1.10700
C877        C  0.06992566  0.55710053  0.93045248     0.98700
C878        C  0.06969084  0.94354959  0.93079253     0.98700
N879        N  0.03763847  0.97253498  0.56024884    -0.06600
N880        N  0.04241181  0.95461018  0.58080851    -0.62000
N881        N  0.05978063  0.52850926  0.53776529    -0.05900
N882        N  0.08016477  0.54637125  0.54262971    -0.58700
N883        N  0.03756814  0.52859946  0.56000961    -0.07200
N884        N  0.04241366  0.54654241  0.58048451    -0.61500
N885        N  0.05974643  0.97247104  0.53791585    -0.06200
N886        N  0.07996101  0.95447006  0.54273168    -0.58700
Mn887      Mn  0.00016252  0.50048917  0.56093730     1.20200
Mn888      Mn  0.06101457  0.50041447  0.50015452     1.10100
Cl889      Cl  0.00052580  0.50045216  0.49979503    -0.86700
C890        C  0.06884515  0.94343943  0.56952021     0.95700
C891        C  0.06904443  0.55752703  0.56931477     0.95500
N892        N  0.28832952  0.77860999  0.69036805    -0.06800
N893        N  0.29336622  0.79654091  0.66988598    -0.59000
N894        N  0.31039009  0.72250031  0.71286215    -0.06500
N895        N  0.33083191  0.70462245  0.70804745    -0.61100
N896        N  0.28849739  0.72261230  0.69033772    -0.06100
N897        N  0.29363294  0.70486721  0.66968334    -0.58900
N898        N  0.31047355  0.77839245  0.71264587    -0.05800
N899        N  0.33117775  0.79602502  0.70765775    -0.61400
C900        C  0.32014583  0.80725946  0.68099698     0.95300
C901        C  0.32004347  0.69373533  0.68105231     0.95100
N902        N  0.28764484  0.72254575  0.81052612    -0.07000
N903        N  0.29262294  0.70469380  0.83113995    -0.59500
N904        N  0.30979538  0.77852297  0.78819702    -0.05100
N905        N  0.33023561  0.79631495  0.79320291    -0.60800
N906        N  0.28778131  0.77839460  0.81064449    -0.07000
N907        N  0.29290578  0.79601554  0.83150792    -0.59800
N908        N  0.30983361  0.72264559  0.78826744    -0.04800
N909        N  0.33034998  0.70488972  0.79323625    -0.60900
Mn910      Mn  0.31110678  0.75052169  0.75050564     1.18400
C911        C  0.31930529  0.69379227  0.81998566     0.97400
C912        C  0.31939499  0.80710768  0.82024940     0.98100
N913        N  0.21354813  0.72244874  0.68993667    -0.07100
N914        N  0.20868404  0.70452693  0.66943377    -0.63400
N915        N  0.19140468  0.77857197  0.71209098    -0.05900
N916        N  0.17121121  0.79659106  0.70730062    -0.64000
N917        N  0.21351568  0.77851342  0.68976128    -0.06600
N918        N  0.20876574  0.79645976  0.66922926    -0.63600
N919        N  0.19133480  0.72253320  0.71218052    -0.05500
N920        N  0.17093199  0.70468852  0.70728754    -0.64300
Mn921      Mn  0.25097240  0.75054525  0.68904391     1.10700
C922        C  0.18204100  0.69354928  0.68058570     0.98700
C923        C  0.18234381  0.80763830  0.68053104     0.98700
N924        N  0.21284464  0.77848514  0.81003881    -0.06600
N925        N  0.20776007  0.79623439  0.83069000    -0.62000
N926        N  0.19083391  0.72265873  0.78764184    -0.05900
N927        N  0.17036826  0.70483700  0.79249836    -0.58700
N928        N  0.21274360  0.72268150  0.81014854    -0.07200
N929        N  0.20759436  0.70493409  0.83084322    -0.61500
N930        N  0.19100033  0.77864970  0.78746077    -0.06200
N931        N  0.17068126  0.79661268  0.79219186    -0.58700
Mn932      Mn  0.25022884  0.75051629  0.81138141     1.20200
Mn933      Mn  0.19011408  0.75060538  0.74982163     1.10100
Cl934      Cl  0.25060249  0.75054724  0.75018685    -0.86700
C935        C  0.18146742  0.80744746  0.81921540     0.95700
C936        C  0.18115407  0.69389898  0.81949363     0.95500
C937        C  0.09311819  0.63500779  0.67457820    -0.18500
C938        C  0.07700225  0.61627537  0.65877112    -0.20700
C939        C  0.08892051  0.60670151  0.62995906     0.19900
C940        C  0.11737891  0.61611211  0.61693804    -0.03600
C941        C  0.13366263  0.63501000  0.63290856    -0.06700
C942        C  0.12143833  0.64449099  0.66185528     0.20200
C943        C  0.16212338  0.64441859  0.61989023     0.18400
C944        C  0.17403806  0.63484793  0.59107458    -0.18200
C945        C  0.15792243  0.61611472  0.57526787    -0.20400
C946        C  0.12960574  0.60662784  0.58799425     0.19900
C947        C  0.11341650  0.58774352  0.57237870    -0.33400
C948        C  0.08518145  0.57812758  0.58532664     0.00600
C949        C  0.07299141  0.58780592  0.61404897    -0.24800
C950        C  0.13763815  0.66336378  0.67748252    -0.29300
C951        C  0.16588198  0.67297181  0.66454469     0.06200
C952        C  0.17806300  0.66330385  0.63581201    -0.28000
H953        H  0.08341025  0.64209301  0.69677702     0.11000
H954        H  0.05520287  0.60925793  0.66910667     0.12100
H955        H  0.19583772  0.64186501  0.58073942     0.11200
H956        H  0.16763134  0.60902842  0.55307008     0.10400
H957        H  0.12297848  0.58039919  0.55024959     0.15800
H958        H  0.05125791  0.58049451  0.62419714     0.11700
H959        H  0.12808115  0.67070191  0.69961755     0.14600
H960        H  0.19980153  0.67061107  0.62566981     0.14300
C961        C  0.09741468  0.63100684  0.82174831    -0.18500
C962        C  0.08157445  0.61208897  0.83749898    -0.20700
C963        C  0.09142358  0.60446760  0.86806948     0.19900
C964        C  0.11753142  0.61596943  0.88292374    -0.03600
C965        C  0.13352229  0.63504366  0.86702673    -0.06700
C966        C  0.12335794  0.64261217  0.83631676     0.20200
C967        C  0.15963117  0.64654392  0.88188061     0.18400
C968        C  0.16947955  0.63892363  0.91245155    -0.18200
C969        C  0.15363894  0.62000668  0.92820242    -0.20400
C970        C  0.12769691  0.60840096  0.91363324     0.19900
C971        C  0.11184427  0.58929272  0.92915755    -0.33400
C972        C  0.08591444  0.57769497  0.91442167     0.00600
C973        C  0.07572666  0.58547205  0.88396674    -0.24800
C974        C  0.13921506  0.66171843  0.82079053    -0.29300
C975        C  0.16514922  0.67331181  0.83552509     0.06200
C976        C  0.17533258  0.66553562  0.86598173    -0.28000
H977        H  0.08934026  0.63658786  0.79817289     0.11000
H978        H  0.06159946  0.60341337  0.82576171     0.12100
H979        H  0.18945514  0.64759853  0.92418826     0.11200
H980        H  0.16171375  0.61442534  0.95177766     0.10400
H981        H  0.11976109  0.58340927  0.95267455     0.15800
H982        H  0.05578703  0.57656445  0.87244512     0.11700
H983        H  0.13130094  0.66760202  0.79727303     0.14600
H984        H  0.19527464  0.67444005  0.87750324     0.14300
C985        C  0.08161425  0.88871465  0.66274133    -0.18500
C986        C  0.09806081  0.87014473  0.67860866    -0.20700
C987        C  0.12416802  0.85875118  0.66395013     0.19900
C988        C  0.13392107  0.86619671  0.63305528    -0.03600
C989        C  0.11731375  0.88492170  0.61703792    -0.06700
C990        C  0.09103015  0.89621902  0.63197039     0.20200
C991        C  0.12706396  0.89236404  0.58614089     0.18400
C992        C  0.15317398  0.88097320  0.57148422    -0.18200
C993        C  0.16962104  0.86240420  0.58735189    -0.20400
C994        C  0.16020214  0.85489776  0.61812079     0.19900
C995        C  0.17638593  0.83613394  0.63407530    -0.33400
C996        C  0.16644210  0.82835931  0.66462698     0.00600
C997        C  0.14048787  0.83989094  0.67951459    -0.24800
C998        C  0.07483618  0.91497437  0.61600762    -0.29300
C999        C  0.08477065  0.92273969  0.58544834     0.06200
C1000       C  0.11073363  0.91121436  0.57056823    -0.28000
H1001       H  0.06152734  0.89722617  0.67455738     0.11000
H1002       H  0.09030097  0.86464455  0.70233302     0.12100
H1003       H  0.16093244  0.88647193  0.54775857     0.11200
H1004       H  0.18970692  0.85389189  0.57553555     0.10400
H1005       H  0.19636796  0.82730520  0.62245840     0.15800
H1006       H  0.13278395  0.83404710  0.70312900     0.11700
H1007       H  0.05484874  0.92379953  0.62761992     0.14000
H1008       H  0.11843204  0.91705168  0.54694933     0.14300
C1009       C  0.34763742  0.62067800  0.57153613    -0.18500
C1010       C  0.33182751  0.63949983  0.58751498    -0.20700
C1011       C  0.34158900  0.64676770  0.61823677     0.19900
C1012       C  0.36758430  0.63501403  0.63301327    -0.03600
C1013       C  0.38354868  0.61603052  0.61688161    -0.06700
C1014       C  0.37346708  0.60880036  0.58602245     0.20200
C1015       C  0.40954247  0.60427645  0.63165973     0.18400
C1016       C  0.41930613  0.61154534  0.66238013    -0.18200
C1017       C  0.40349658  0.63036662  0.67835869    -0.20400
C1018       C  0.37766533  0.64224237  0.66387330     0.19900
C1019       C  0.36185780  0.66129760  0.67960494    -0.33400
C1020       C  0.33603581  0.67315657  0.66492404     0.00600
C1021       C  0.32592118  0.66567089  0.63434200    -0.24800
C1022       C  0.38927044  0.58973984  0.57029499    -0.29300
C1023       C  0.41508838  0.57787893  0.58498109     0.06200
C1024       C  0.42520575  0.58536984  0.61555947    -0.28000
H1025       H  0.33961816  0.61537810  0.54785224     0.11000
H1026       H  0.31194081  0.64838112  0.57583006     0.12100
H1027       H  0.43919283  0.60266375  0.67406487     0.11200
H1028       H  0.41151556  0.63566631  0.70204344     0.10400
H1029       H  0.36972168  0.66693887  0.70321890     0.15800
H1030       H  0.30606927  0.67476177  0.62285193     0.11700
H1031       H  0.38140587  0.58409506  0.54668290     0.14600
H1032       H  0.44505488  0.57627813  0.62705304     0.14300
C1033       C  0.41442307  0.89238948  0.83428315    -0.18500
C1034       C  0.39834715  0.87347903  0.81883296    -0.20700
C1035       C  0.37493444  0.86010426  0.83511606     0.19900
C1036       C  0.36748291  0.86591774  0.86723320    -0.03600
C1037       C  0.38371904  0.88498867  0.88282946    -0.06700
C1038       C  0.40734819  0.89824370  0.86627356     0.20200
C1039       C  0.37626559  0.89080397  0.91494568     0.18400
C1040       C  0.35285548  0.87742718  0.93122991    -0.18200
C1041       C  0.33677953  0.85851651  0.91577964    -0.20400
C1042       C  0.34385155  0.85266409  0.88378792     0.19900
C1043       C  0.32783857  0.83372416  0.86811417    -0.33400
C1044       C  0.33543984  0.82766038  0.83625354     0.00600
C1045       C  0.35896611  0.84094911  0.81990147    -0.24800
C1046       C  0.42335246  0.91718965  0.88194282    -0.29300
C1047       C  0.41574467  0.92325912  0.91379998     0.06200
C1048       C  0.39222545  0.90996578  0.93015601    -0.28000
H1049       H  0.43242374  0.90243239  0.82120640     0.11000
H1050       H  0.40428276  0.86927503  0.79414525     0.12100
H1051       H  0.34691939  0.88163155  0.95591747     0.11200
H1052       H  0.31877820  0.84847404  0.92885592     0.10400
H1053       H  0.30981072  0.82346319  0.88088057     0.15800
H1054       H  0.36483018  0.83640309  0.79528691     0.11700
H1055       H  0.44137600  0.92745308  0.86917346     0.14600
H1056       H  0.38635755  0.91451561  0.95476837     0.14300
C1057       C  0.32653897  0.63417103  0.90840474    -0.18500
C1058       C  0.34260097  0.61530699  0.92404623    -0.20700
C1059       C  0.37111866  0.60608092  0.91145326     0.19900
C1060       C  0.38362674  0.61593797  0.88283418    -0.03600
C1061       C  0.36741734  0.63495777  0.86705024    -0.06700
C1062       C  0.33875065  0.64412021  0.87993273     0.20200
C1063       C  0.37992733  0.64481697  0.83843302     0.18400
C1064       C  0.40844300  0.63558871  0.82583822    -0.18200
C1065       C  0.42450473  0.61672427  0.84147963    -0.20400
C1066       C  0.41229498  0.60677706  0.86995386     0.19900
C1067       C  0.42813798  0.58774484  0.88566720    -0.33400
C1068       C  0.41565536  0.57773119  0.91404512     0.00600
C1069       C  0.38724187  0.58708252  0.92688340    -0.24800
C1070       C  0.32291481  0.66315936  0.86422739    -0.29300
C1071       C  0.33540363  0.67317990  0.83585654     0.06200
C1072       C  0.36381108  0.66382286  0.82301111    -0.28000
H1073       H  0.30456963  0.64100189  0.91860291     0.11000
H1074       H  0.33269879  0.60791432  0.94599824     0.12100
H1075       H  0.41834649  0.64298210  0.80388661     0.11200
H1076       H  0.44647413  0.60989398  0.83128263     0.10400
H1077       H  0.45004938  0.58061862  0.87566563     0.15800
H1078       H  0.37749577  0.57945035  0.94877824     0.11700
H1079       H  0.30100694  0.67028877  0.87423326     0.14600
H1080       H  0.37356098  0.67145935  0.80112024     0.14300
C1081       C  0.16556201  0.85887281  0.91478568    -0.18500
C1082       C  0.14959887  0.87767472  0.93063132    -0.20700
C1083       C  0.12562973  0.89086969  0.91493258     0.19900
C1084       C  0.11752784  0.88497991  0.88299884    -0.03600
C1085       C  0.13364634  0.86602588  0.86700680    -0.06700
C1086       C  0.15781293  0.85296111  0.88299050     0.20200
C1087       C  0.12554470  0.86013672  0.83507295     0.18400
C1088       C  0.10157567  0.87333157  0.81937388    -0.18200
C1089       C  0.08561087  0.89213201  0.83522025    -0.20400
C1090       C  0.09335970  0.89804321  0.86701566     0.19900
C1091       C  0.07748296  0.91687135  0.88303759    -0.33400
C1092       C  0.08570155  0.92302675  0.91468806     0.00600
C1093       C  0.10973961  0.90992538  0.93052741    -0.24800
C1094       C  0.17368668  0.83413048  0.86696968    -0.29300
C1095       C  0.16546730  0.82797544  0.83531949     0.06200
C1096       C  0.14143326  0.84108040  0.81947877    -0.28000
H1097       H  0.18400768  0.84896149  0.92740034     0.11000
H1098       H  0.15605526  0.88193576  0.95515619     0.12100
H1099       H  0.09511961  0.86907086  0.79484890     0.11200
H1100       H  0.06716418  0.90204241  0.82260598     0.10400
H1101       H  0.05904440  0.92698469  0.87066601     0.15800
H1102       H  0.11608554  0.91456065  0.95497809     0.11700
H1103       H  0.19212237  0.82401455  0.87934190     0.14600
H1104       H  0.13508657  0.83644570  0.79502815     0.14300
C1105       C  0.41693881  0.85559334  0.66052483    -0.18500
C1106       C  0.43258103  0.87449883  0.64452947    -0.20700
C1107       C  0.41604320  0.88938049  0.62283060     0.19900
C1108       C  0.38346447  0.88506020  0.61697929    -0.03600
C1109       C  0.36767648  0.86599755  0.63313500    -0.06700
C1110       C  0.38449907  0.85125761  0.65508525     0.20200
C1111       C  0.33509841  0.86167650  0.62728130     0.18400
C1112       C  0.31855960  0.87655958  0.60558532    -0.18200
C1113       C  0.33420201  0.89546398  0.58958901    -0.20400
C1114       C  0.36664251  0.89979769  0.59502576     0.19900
C1115       C  0.38252125  0.91866801  0.57901413    -0.33400
C1116       C  0.41484149  0.92326780  0.58508506     0.00600
C1117       C  0.43145729  0.90856967  0.60700435    -0.24800
C1118       C  0.36862276  0.83238006  0.67108574    -0.29300
C1119       C  0.33630486  0.82777649  0.66500571     0.06200
C1120       C  0.31968703  0.84248199  0.64309697    -0.28000
H1121       H  0.43021418  0.84437624  0.67720376     0.11000
H1122       H  0.45761455  0.87752566  0.64920073     0.12100
H1123       H  0.29352611  0.87353242  0.60091333     0.11200
H1124       H  0.32092721  0.90667987  0.57290826     0.10400
H1125       H  0.36957436  0.93005470  0.56224825     0.15800
H1126       H  0.45642370  0.91200851  0.61163441     0.11700
H1127       H  0.38157046  0.82098864  0.68784480     0.14600
H1128       H  0.29472204  0.83904137  0.63846133     0.14300
N1129       N  0.96336180  0.47255961  0.43936864    -0.06800
N1130       N  0.95825218  0.45492485  0.41852235    -0.59000
N1131       N  0.94127066  0.02831019  0.46168981    -0.06500
N1132       N  0.92073701  0.04605091  0.45669984    -0.61100
N1133       N  0.96345883  0.02840738  0.43943082    -0.06100
N1134       N  0.95846331  0.04624208  0.41879537    -0.58900
N1135       N  0.94134879  0.47243231  0.46181736    -0.05800
N1136       N  0.92092343  0.45462706  0.45682848    -0.61400
C1137       C  0.93177340  0.44382503  0.42979169     0.95300
C1138       C  0.93177057  0.05713596  0.42993680     0.95100
N1139       N  0.96262359  0.02840929  0.05961484    -0.07000
N1140       N  0.95749034  0.04616918  0.08024650    -0.59500
N1141       N  0.94067344  0.47261045  0.03737243    -0.05100
N1142       N  0.91997036  0.45498192  0.04238797    -0.60800
N1143       N  0.96281930  0.47241186  0.05964885    -0.07000
N1144       N  0.95778438  0.45449781  0.08015780    -0.59800
N1145       N  0.94072684  0.02850306  0.03709432    -0.04800
N1146       N  0.92028372  0.04638379  0.04188966    -0.60900
Mn1147     Mn  0.94002078  0.50045675  0.99948130     1.18400
C1148       C  0.93107693  0.05729128  0.06886897     0.97400
C1149       C  0.93100414  0.44376965  0.06906388     0.98100
N1150       N  0.53836084  0.02830383  0.43980746    -0.07100
N1151       N  0.54349338  0.04605092  0.41910712    -0.63400
N1152       N  0.56014152  0.47235017  0.46253861    -0.05900
N1153       N  0.58047371  0.45439479  0.45781081    -0.64000
N1154       N  0.53829447  0.47250020  0.43996318    -0.06600
N1155       N  0.54338886  0.45474895  0.41931832    -0.63600
N1156       N  0.56027246  0.02834119  0.46231201    -0.05500
N1157       N  0.58072193  0.04617205  0.45744950    -0.64300
Mn1158     Mn  0.50089376  0.00045326  0.43860122     1.10700
C1159       C  0.56992567  0.05710052  0.43045245     0.98700
C1160       C  0.56969083  0.44354958  0.43079257     0.98700
N1161       N  0.53763841  0.47253493  0.06024889    -0.06600
N1162       N  0.54241184  0.45461012  0.08080850    -0.62000
N1163       N  0.55978059  0.02850925  0.03776528    -0.05900
N1164       N  0.58016463  0.04637127  0.04262968    -0.58700
N1165       N  0.53756806  0.02859945  0.06000958    -0.07200
N1166       N  0.54241362  0.04654236  0.08048450    -0.61500
N1167       N  0.55974627  0.47247101  0.03791577    -0.06200
N1168       N  0.57996103  0.45447013  0.04273156    -0.58700
Mn1169     Mn  0.50016248  0.00048919  0.06093732     1.20200
Mn1170     Mn  0.56101457  0.00041451  0.00015449     1.10100
Cl1171     Cl  0.50052583  0.00045212  0.99979503    -0.86700
C1172       C  0.56884517  0.44343942  0.06952006     0.95700
C1173       C  0.56904431  0.05752707  0.06931474     0.95500
N1174       N  0.78832945  0.27860999  0.19036798    -0.06800
N1175       N  0.79336624  0.29654094  0.16988600    -0.59000
N1176       N  0.81039001  0.22250033  0.21286208    -0.06500
N1177       N  0.83083184  0.20462246  0.20804747    -0.61100
N1178       N  0.78849728  0.22261226  0.19033771    -0.06100
N1179       N  0.79363295  0.20486716  0.16968331    -0.58900
N1180       N  0.81047342  0.27839242  0.21264585    -0.05800
N1181       N  0.83117769  0.29602497  0.20765785    -0.61400
C1182       C  0.82014585  0.30725944  0.18099711     0.95300
C1183       C  0.82004353  0.19373534  0.18105226     0.95100
N1184       N  0.78764477  0.22254579  0.31052610    -0.07000
N1185       N  0.79262289  0.20469388  0.33114000    -0.59500
N1186       N  0.80979529  0.27852299  0.28819700    -0.05100
N1187       N  0.83023552  0.29631499  0.29320295    -0.60800
N1188       N  0.78778122  0.27839461  0.31064441    -0.07000
N1189       N  0.79290578  0.29601550  0.33150792    -0.59800
N1190       N  0.80983347  0.22264554  0.28826737    -0.04800
N1191       N  0.83034991  0.20488971  0.29323630    -0.60900
Mn1192     Mn  0.81110668  0.25052170  0.25050562     1.18400
C1193       C  0.81930522  0.19379229  0.31998572     0.97400
C1194       C  0.81939499  0.30710765  0.32024948     0.98100
N1195       N  0.71354812  0.22244867  0.18993671    -0.07100
N1196       N  0.70868408  0.20452687  0.16943374    -0.63400
N1197       N  0.69140460  0.27857194  0.21209092    -0.05900
N1198       N  0.67121117  0.29659107  0.20730068    -0.64000
N1199       N  0.71351563  0.27851339  0.18976123    -0.06600
N1200       N  0.70876577  0.29645977  0.16922926    -0.63600
N1201       N  0.69133467  0.22253320  0.21218042    -0.05500
N1202       N  0.67093195  0.20468843  0.20728751    -0.64300
Mn1203     Mn  0.75097238  0.25054526  0.18904395     1.10700
C1204       C  0.68204102  0.19354925  0.18058566     0.98700
C1205       C  0.68234387  0.30763833  0.18053112     0.98700
N1206       N  0.71284453  0.27848508  0.31003871    -0.06600
N1207       N  0.70776003  0.29623433  0.33068996    -0.62000
N1208       N  0.69083389  0.22265868  0.28764175    -0.05900
N1209       N  0.67036813  0.20483702  0.29249841    -0.58700
N1210       N  0.71274346  0.22268156  0.31014856    -0.07200
N1211       N  0.70759427  0.20493410  0.33084316    -0.61500
N1212       N  0.69100026  0.27864973  0.28746073    -0.06200
N1213       N  0.67068120  0.29661276  0.29219195    -0.58700
Mn1214     Mn  0.75022878  0.25051630  0.31138142     1.20200
Mn1215     Mn  0.69011405  0.25060539  0.24982161     1.10100
Cl1216     Cl  0.75060241  0.25054722  0.25018684    -0.86700
C1217       C  0.68146747  0.30744750  0.31921541     0.95700
C1218       C  0.68115399  0.19389896  0.31949361     0.95500
C1219       C  0.59311828  0.13500776  0.17457807    -0.18500
C1220       C  0.57700228  0.11627533  0.15877109    -0.20700
C1221       C  0.58892040  0.10670140  0.12995915     0.19900
C1222       C  0.61737884  0.11611216  0.11693799    -0.03600
C1223       C  0.63366268  0.13501001  0.13290852    -0.06700
C1224       C  0.62143843  0.14449098  0.16185512     0.20200
C1225       C  0.66212354  0.14441863  0.11989018     0.18400
C1226       C  0.67403824  0.13484799  0.09107458    -0.18200
C1227       C  0.65792250  0.11611481  0.07526790    -0.20400
C1228       C  0.62960572  0.10662790  0.08799444     0.19900
C1229       C  0.61341639  0.08774361  0.07237878    -0.33400
C1230       C  0.58518126  0.07812760  0.08532675     0.00600
C1231       C  0.57299126  0.08780586  0.11404908    -0.24800
C1232       C  0.63763816  0.16336381  0.17748249    -0.29300
C1233       C  0.66588200  0.17297182  0.16454468     0.06200
C1234       C  0.67806303  0.16330391  0.13581203    -0.28000
H1235       H  0.58341050  0.14209304  0.19677646     0.11000
H1236       H  0.55520289  0.10925789  0.16910716     0.12100
H1237       H  0.69583829  0.14186488  0.08073927     0.11200
H1238       H  0.66763126  0.10902838  0.05307052     0.10400
H1239       H  0.62297809  0.08039950  0.05024968     0.15800
H1240       H  0.55125776  0.08049430  0.12419760     0.11700
H1241       H  0.62808117  0.17070191  0.19961753     0.14600
H1242       H  0.69980158  0.17061113  0.12566989     0.14300
C1243       C  0.59741475  0.13100688  0.32174862    -0.18500
C1244       C  0.58157452  0.11208904  0.33749932    -0.20700
C1245       C  0.59142379  0.10446775  0.36806967     0.19900
C1246       C  0.61753147  0.11596952  0.38292378    -0.03600
C1247       C  0.63352227  0.13504373  0.36702682    -0.06700
C1248       C  0.62335793  0.14261221  0.33631696     0.20200
C1249       C  0.65963119  0.14654391  0.38188071     0.18400
C1250       C  0.66947956  0.13892360  0.41245170    -0.18200
C1251       C  0.65363896  0.12000666  0.42820257    -0.20400
C1252       C  0.62769687  0.10840106  0.41363320     0.19900
C1253       C  0.61184424  0.08929278  0.42915755    -0.33400
C1254       C  0.58591454  0.07769503  0.41442172     0.00600
C1255       C  0.57572680  0.08547219  0.38396690    -0.24800
C1256       C  0.63921495  0.16171844  0.32079059    -0.29300
C1257       C  0.66514920  0.17331175  0.33552505     0.06200
C1258       C  0.67533252  0.16553563  0.36598176    -0.28000
H1259       H  0.58934025  0.13658790  0.29817354     0.11000
H1260       H  0.56159958  0.10341358  0.32576219     0.12100
H1261       H  0.68945525  0.14759855  0.42418867     0.11200
H1262       H  0.66171366  0.11442528  0.45177768     0.10400
H1263       H  0.61976125  0.08340918  0.45267411     0.15800
H1264       H  0.55578767  0.07656472  0.37244539     0.11700
H1265       H  0.63130078  0.16760198  0.29727313     0.14600
H1266       H  0.69527469  0.17443990  0.37750304     0.14300
C1267       C  0.58161434  0.38871463  0.16274118    -0.18500
C1268       C  0.59806082  0.37014472  0.17860870    -0.20700
C1269       C  0.62416802  0.35875114  0.16395029     0.19900
C1270       C  0.63392110  0.36619663  0.13305527    -0.03600
C1271       C  0.61731384  0.38492163  0.11703775    -0.06700
C1272       C  0.59103034  0.39621896  0.13197015     0.20200
C1273       C  0.62706410  0.39236407  0.08614070     0.18400
C1274       C  0.65317404  0.38097320  0.07148407    -0.18200
C1275       C  0.66962107  0.36240424  0.08735182    -0.20400
C1276       C  0.66020223  0.35489770  0.11812075     0.19900
C1277       C  0.67638600  0.33613394  0.13407526    -0.33400
C1278       C  0.66644216  0.32835927  0.16462702     0.00600
C1279       C  0.64048791  0.33989093  0.17951466    -0.24800
C1280       C  0.57483626  0.41497437  0.11600742    -0.29300
C1281       C  0.58477074  0.42273968  0.08544809     0.06200
C1282       C  0.61073369  0.41121437  0.07056803    -0.28000
H1283       H  0.56152757  0.39722611  0.17455696     0.11000
H1284       H  0.59030091  0.36464460  0.20233316     0.12100
H1285       H  0.66093252  0.38647207  0.04775857     0.11200
H1286       H  0.68970704  0.35389195  0.07553522     0.10400
H1287       H  0.69636807  0.32730511  0.12245806     0.15800
H1288       H  0.63278401  0.33404713  0.20312944     0.11700
H1289       H  0.55484890  0.42379947  0.12761955     0.14000
H1290       H  0.61843211  0.41705176  0.04694891     0.14300
C1291       C  0.84763743  0.12067798  0.07153598    -0.18500
C1292       C  0.83182757  0.13949982  0.08751494    -0.20700
C1293       C  0.84158913  0.14676765  0.11823684     0.19900
C1294       C  0.86758437  0.13501400  0.13301328    -0.03600
C1295       C  0.88354873  0.11603049  0.11688158    -0.06700
C1296       C  0.87346707  0.10880034  0.08602234     0.20200
C1297       C  0.90954263  0.10427638  0.13165973     0.18400
C1298       C  0.91930610  0.11154530  0.16238013    -0.18200
C1299       C  0.90349661  0.13036659  0.17835868    -0.20400
C1300       C  0.87766533  0.14224232  0.16387325     0.19900
C1301       C  0.86185782  0.16129755  0.17960491    -0.33400
C1302       C  0.83603585  0.17315649  0.16492406     0.00600
C1303       C  0.82592125  0.16567088  0.13434203    -0.24800
C1304       C  0.88927054  0.08973983  0.07029504    -0.29300
C1305       C  0.91508848  0.07787887  0.08498115     0.06200
C1306       C  0.92520580  0.08536973  0.11555953    -0.28000
H1307       H  0.83961810  0.11537814  0.04785168     0.11000
H1308       H  0.81194084  0.14838106  0.07583048     0.12100
H1309       H  0.93919286  0.10266371  0.17406529     0.11200
H1310       H  0.91151572  0.13566643  0.20204301     0.10400
H1311       H  0.86972135  0.16693862  0.20321896     0.15800
H1312       H  0.80606938  0.17476170  0.12285222     0.11700
H1313       H  0.88140606  0.08409509  0.04668290     0.14600
H1314       H  0.94505504  0.07627796  0.12705338     0.14300
C1315       C  0.91442310  0.39238952  0.33428327    -0.18500
C1316       C  0.89834706  0.37347905  0.31883322    -0.20700
C1317       C  0.87493429  0.36010435  0.33511652     0.19900
C1318       C  0.86748282  0.36591775  0.36723337    -0.03600
C1319       C  0.88371910  0.38498869  0.38282955    -0.06700
C1320       C  0.90734824  0.39824376  0.36627357     0.20200
C1321       C  0.87626555  0.39080404  0.41494558     0.18400
C1322       C  0.85285548  0.37742715  0.43122977    -0.18200
C1323       C  0.83677952  0.35851642  0.41577961    -0.20400
C1324       C  0.84385138  0.35266399  0.38378806     0.19900
C1325       C  0.82783846  0.33372406  0.36811432    -0.33400
C1326       C  0.83543974  0.32766032  0.33625383     0.00600
C1327       C  0.85896604  0.34094916  0.31990175    -0.24800
C1328       C  0.92335253  0.41718968  0.38194291    -0.29300
C1329       C  0.91574459  0.42325916  0.41380009     0.06200
C1330       C  0.89222535  0.40996581  0.43015608    -0.28000
H1331       H  0.93242387  0.40243226  0.32120629     0.11000
H1332       H  0.90428234  0.36927520  0.29414594     0.12100
H1333       H  0.84691946  0.38163153  0.45591694     0.11200
H1334       H  0.81877823  0.34847393  0.42885634     0.10400
H1335       H  0.80981058  0.32346297  0.38088093     0.15800
H1336       H  0.86483014  0.33640316  0.29528767     0.11700
H1337       H  0.94137612  0.42745311  0.36917373     0.14600
H1338       H  0.88635705  0.41451577  0.45476842     0.14300
C1339       C  0.82653898  0.13417101  0.40840483    -0.18500
C1340       C  0.84260098  0.11530697  0.42404637    -0.20700
C1341       C  0.87111865  0.10608086  0.41145335     0.19900
C1342       C  0.88362681  0.11593793  0.38283425    -0.03600
C1343       C  0.86741733  0.13495772  0.36705039    -0.06700
C1344       C  0.83875065  0.14412011  0.37993274     0.20200
C1345       C  0.87992721  0.14481692  0.33843337     0.18400
C1346       C  0.90844293  0.13558868  0.32583838    -0.18200
C1347       C  0.92450477  0.11672425  0.34147964    -0.20400
C1348       C  0.91229522  0.10677696  0.36995374     0.19900
C1349       C  0.92813817  0.08774477  0.38566704    -0.33400
C1350       C  0.91565552  0.07773117  0.41404497     0.00600
C1351       C  0.88724197  0.08708251  0.42688338    -0.24800
C1352       C  0.82291485  0.16315932  0.36422741    -0.29300
C1353       C  0.83540351  0.17317985  0.33585661     0.06200
C1354       C  0.86381102  0.16382286  0.32301129    -0.28000
H1355       H  0.80456962  0.14100183  0.41860257     0.11000
H1356       H  0.83269874  0.10791434  0.44599876     0.12100
H1357       H  0.91834631  0.14298216  0.30388732     0.11200
H1358       H  0.94647432  0.10989397  0.33128216     0.10400
H1359       H  0.95005000  0.08061852  0.37566536     0.15800
H1360       H  0.87749591  0.07945032  0.44877817     0.11700
H1361       H  0.80100685  0.17028859  0.37423313     0.14600
H1362       H  0.87356098  0.17145940  0.30112087     0.14300
C1363       C  0.66556202  0.35887278  0.41478563    -0.18500
C1364       C  0.64959883  0.37767468  0.43063118    -0.20700
C1365       C  0.62562967  0.39086962  0.41493228     0.19900
C1366       C  0.61752787  0.38497989  0.38299878    -0.03600
C1367       C  0.63364643  0.36602581  0.36700681    -0.06700
C1368       C  0.65781307  0.35296102  0.38299058     0.20200
C1369       C  0.62554484  0.36013671  0.33507315     0.18400
C1370       C  0.60157575  0.37333157  0.31937417    -0.18200
C1371       C  0.58561096  0.39213207  0.33522055    -0.20400
C1372       C  0.59335976  0.39804318  0.36701578     0.19900
C1373       C  0.57748300  0.41687140  0.38303767    -0.33400
C1374       C  0.58570155  0.42302673  0.41468804     0.00600
C1375       C  0.60973959  0.40992536  0.43052726    -0.24800
C1376       C  0.67368681  0.33413043  0.36696973    -0.29300
C1377       C  0.66546737  0.32797539  0.33531963     0.06200
C1378       C  0.64143328  0.34108039  0.31947881    -0.28000
H1379       H  0.68400776  0.34896157  0.42740057     0.11000
H1380       H  0.65605512  0.38193561  0.45515564     0.12100
H1381       H  0.59511965  0.36907097  0.29484960     0.11200
H1382       H  0.56716434  0.40204238  0.32260639     0.10400
H1383       H  0.55904447  0.42698461  0.37066637     0.15800
H1384       H  0.61608553  0.41456063  0.45497755     0.11700
H1385       H  0.69212282  0.32401442  0.37934200     0.14600
H1386       H  0.63508655  0.33644576  0.29502833     0.14300
C1387       C  0.91693885  0.35559336  0.16052485    -0.18500
C1388       C  0.93258110  0.37449881  0.14452954    -0.20700
C1389       C  0.91604330  0.38938050  0.12283074     0.19900
C1390       C  0.88346459  0.38506019  0.11697933    -0.03600
C1391       C  0.86767660  0.36599751  0.13313500    -0.06700
C1392       C  0.88449916  0.35125755  0.15508548     0.20200
C1393       C  0.83509859  0.36167657  0.12728142     0.18400
C1394       C  0.81855960  0.37655954  0.10558527    -0.18200
C1395       C  0.83420199  0.39546398  0.08958910    -0.20400
C1396       C  0.86664249  0.39979769  0.09502580     0.19900
C1397       C  0.88252111  0.41866799  0.07901415    -0.33400
C1398       C  0.91484138  0.42326773  0.08508513     0.00600
C1399       C  0.93145731  0.40856957  0.10700440    -0.24800
C1400       C  0.86862299  0.33237989  0.17108595    -0.29300
C1401       C  0.83630520  0.32777636  0.16500598     0.06200
C1402       C  0.81968739  0.34248190  0.14309702    -0.28000
H1403       H  0.93021422  0.34437650  0.17720414     0.11000
H1404       H  0.95761467  0.37752573  0.14920101     0.12100
H1405       H  0.79352614  0.37353244  0.10091333     0.11200
H1406       H  0.82092712  0.40667981  0.07290826     0.10400
H1407       H  0.86957415  0.43005472  0.06224830     0.15800
H1408       H  0.95642379  0.41200834  0.11163433     0.11700
H1409       H  0.88157092  0.32098848  0.18784553     0.14600
H1410       H  0.79472275  0.33904126  0.13846138     0.14300
N1411       N  0.96336182  0.47255962  0.93936867    -0.06800
N1412       N  0.95825226  0.45492485  0.91852237    -0.59000
N1413       N  0.94127056  0.02831017  0.96168988    -0.06500
N1414       N  0.92073700  0.04605093  0.95669995    -0.61100
N1415       N  0.96345881  0.02840739  0.93943092    -0.06100
N1416       N  0.95846328  0.04624206  0.91879546    -0.58900
N1417       N  0.94134885  0.47243228  0.96181743    -0.05800
N1418       N  0.92092358  0.45462699  0.95682842    -0.61400
C1419       C  0.93177342  0.44382505  0.92979151     0.95300
C1420       C  0.93177054  0.05713598  0.92993688     0.95100
N1421       N  0.96262364  0.02840931  0.55961480    -0.07000
N1422       N  0.95749033  0.04616915  0.58024652    -0.59500
N1423       N  0.94067339  0.47261048  0.53737242    -0.05100
N1424       N  0.91997042  0.45498189  0.54238798    -0.60800
N1425       N  0.96281931  0.47241190  0.55964878    -0.07000
N1426       N  0.95778436  0.45449788  0.58015775    -0.59800
N1427       N  0.94072686  0.02850308  0.53709423    -0.04800
N1428       N  0.92028380  0.04638378  0.54188961    -0.60900
Mn1429     Mn  0.94002076  0.50045674  0.49948127     1.18400
C1430       C  0.93107691  0.05729126  0.56886900     0.97400
C1431       C  0.93100420  0.44376966  0.56906387     0.98100
N1432       N  0.53836070  0.02830389  0.93980748    -0.07100
N1433       N  0.54349346  0.04605086  0.91910712    -0.63400
N1434       N  0.56014153  0.47235018  0.96253863    -0.05900
N1435       N  0.58047367  0.45439476  0.95781083    -0.64000
N1436       N  0.53829453  0.47250022  0.93996313    -0.06600
N1437       N  0.54338890  0.45474902  0.91931824    -0.63600
N1438       N  0.56027242  0.02834122  0.96231199    -0.05500
N1439       N  0.58072196  0.04617203  0.95744949    -0.64300
Mn1440     Mn  0.50089373  0.00045329  0.93860114     1.10700
C1441       C  0.56992565  0.05710058  0.93045256     0.98700
C1442       C  0.56969081  0.44354958  0.93079255     0.98700
N1443       N  0.53763840  0.47253496  0.56024881    -0.06600
N1444       N  0.54241179  0.45461017  0.58080850    -0.62000
N1445       N  0.55978063  0.02850930  0.53776526    -0.05900
N1446       N  0.58016479  0.04637128  0.54262972    -0.58700
N1447       N  0.53756818  0.02859941  0.56000961    -0.07200
N1448       N  0.54241364  0.04654242  0.58048446    -0.61500
N1449       N  0.55974637  0.47247106  0.53791584    -0.06200
N1450       N  0.57996098  0.45447009  0.54273168    -0.58700
Mn1451     Mn  0.50016249  0.00048916  0.56093730     1.20200
Mn1452     Mn  0.56101461  0.00041448  0.50015452     1.10100
Cl1453     Cl  0.50052589  0.00045216  0.49979503    -0.86700
C1454       C  0.56884516  0.44343945  0.56952023     0.95700
C1455       C  0.56904442  0.05752705  0.56931477     0.95500
N1456       N  0.78832955  0.27861000  0.69036803    -0.06800
N1457       N  0.79336626  0.29654097  0.66988604    -0.59000
N1458       N  0.81039009  0.22250032  0.71286214    -0.06500
N1459       N  0.83083188  0.20462245  0.70804748    -0.61100
N1460       N  0.78849736  0.22261225  0.69033772    -0.06100
N1461       N  0.79363297  0.20486720  0.66968329    -0.58900
N1462       N  0.81047354  0.27839242  0.71264586    -0.05800
N1463       N  0.83117776  0.29602497  0.70765773    -0.61400
C1464       C  0.82014587  0.30725946  0.68099702     0.95300
C1465       C  0.82004346  0.19373532  0.68105232     0.95100
N1466       N  0.78764480  0.22254575  0.81052611    -0.07000
N1467       N  0.79262291  0.20469380  0.83113994    -0.59500
N1468       N  0.80979537  0.27852297  0.78819701    -0.05100
N1469       N  0.83023561  0.29631492  0.79320295    -0.60800
N1470       N  0.78778129  0.27839459  0.81064446    -0.07000
N1471       N  0.79290576  0.29601550  0.83150797    -0.59800
N1472       N  0.80983357  0.22264559  0.78826742    -0.04800
N1473       N  0.83034994  0.20488973  0.79323623    -0.60900
Mn1474     Mn  0.81110676  0.25052169  0.75050562     1.18400
C1475       C  0.81930527  0.19379226  0.81998566     0.97400
C1476       C  0.81939492  0.30710768  0.82024941     0.98100
N1477       N  0.71354811  0.22244873  0.68993667    -0.07100
N1478       N  0.70868402  0.20452692  0.66943377    -0.63400
N1479       N  0.69140466  0.27857196  0.71209097    -0.05900
N1480       N  0.67121121  0.29659108  0.70730067    -0.64000
N1481       N  0.71351567  0.27851341  0.68976128    -0.06600
N1482       N  0.70876577  0.29645978  0.66922928    -0.63600
N1483       N  0.69133477  0.22253320  0.71218051    -0.05500
N1484       N  0.67093196  0.20468851  0.70728754    -0.64300
Mn1485     Mn  0.75097242  0.25054525  0.68904391     1.10700
C1486       C  0.68204097  0.19354927  0.68058571     0.98700
C1487       C  0.68234378  0.30763826  0.68053104     0.98700
N1488       N  0.71284462  0.27848513  0.81003881    -0.06600
N1489       N  0.70776004  0.29623438  0.83068999    -0.62000
N1490       N  0.69083388  0.22265872  0.78764184    -0.05900
N1491       N  0.67036823  0.20483700  0.79249836    -0.58700
N1492       N  0.71274357  0.22268149  0.81014854    -0.07200
N1493       N  0.70759434  0.20493408  0.83084322    -0.61500
N1494       N  0.69100030  0.27864969  0.78746077    -0.06200
N1495       N  0.67068123  0.29661267  0.79219185    -0.58700
Mn1496     Mn  0.75022882  0.25051629  0.81138141     1.20200
Mn1497     Mn  0.69011405  0.25060538  0.74982163     1.10100
Cl1498     Cl  0.75060247  0.25054724  0.75018684    -0.86700
C1499       C  0.68146740  0.30744745  0.81921540     0.95700
C1500       C  0.68115404  0.19389897  0.81949363     0.95500
C1501       C  0.59311815  0.13500777  0.67457820    -0.18500
C1502       C  0.57700223  0.11627536  0.65877112    -0.20700
C1503       C  0.58892048  0.10670150  0.62995907     0.19900
C1504       C  0.61737887  0.11611211  0.61693807    -0.03600
C1505       C  0.63366261  0.13501001  0.63290859    -0.06700
C1506       C  0.62143829  0.14449099  0.66185532     0.20200
C1507       C  0.66212336  0.14441860  0.61989026     0.18400
C1508       C  0.67403802  0.13484793  0.59107463    -0.18200
C1509       C  0.65792232  0.11611471  0.57526796    -0.20400
C1510       C  0.62960567  0.10662784  0.58799433     0.19900
C1511       C  0.61341648  0.08774353  0.57237871    -0.33400
C1512       C  0.58518145  0.07812758  0.58532665     0.00600
C1513       C  0.57299140  0.08780591  0.61404897    -0.24800
C1514       C  0.63763805  0.16336376  0.67748260    -0.29300
C1515       C  0.66588190  0.17297181  0.66454476     0.06200
C1516       C  0.67806295  0.16330386  0.63581204    -0.28000
H1517       H  0.58341020  0.14209299  0.69677702     0.11000
H1518       H  0.55520285  0.10925792  0.66910667     0.12100
H1519       H  0.69583770  0.14186497  0.58073941     0.11200
H1520       H  0.66763098  0.10902843  0.55307019     0.10400
H1521       H  0.62297848  0.08039920  0.55024961     0.15800
H1522       H  0.55125789  0.08049450  0.62419713     0.11700
H1523       H  0.62808081  0.17070193  0.69961766     0.14600
H1524       H  0.69980149  0.17061106  0.62566982     0.14300
C1525       C  0.59741465  0.13100683  0.82174831    -0.18500
C1526       C  0.58157442  0.11208896  0.83749899    -0.20700
C1527       C  0.59142358  0.10446760  0.86806950     0.19900
C1528       C  0.61753141  0.11596942  0.88292375    -0.03600
C1529       C  0.63352227  0.13504366  0.86702673    -0.06700
C1530       C  0.62335791  0.14261216  0.83631676     0.20200
C1531       C  0.65963115  0.14654392  0.88188061     0.18400
C1532       C  0.66947954  0.13892365  0.91245154    -0.18200
C1533       C  0.65363896  0.12000669  0.92820240    -0.20400
C1534       C  0.62769695  0.10840093  0.91363326     0.19900
C1535       C  0.61184433  0.08929272  0.92915758    -0.33400
C1536       C  0.58591451  0.07769496  0.91442174     0.00600
C1537       C  0.57572669  0.08547206  0.88396681    -0.24800
C1538       C  0.63921503  0.16171842  0.82079053    -0.29300
C1539       C  0.66514919  0.17331180  0.83552509     0.06200
C1540       C  0.67533255  0.16553562  0.86598173    -0.28000
H1541       H  0.58934023  0.13658785  0.79817289     0.11000
H1542       H  0.56159944  0.10341336  0.82576173     0.12100
H1543       H  0.68945514  0.14759856  0.92418824     0.11200
H1544       H  0.66171382  0.11442537  0.95177766     0.10400
H1545       H  0.61976146  0.08340909  0.95267455     0.15800
H1546       H  0.55578704  0.07656449  0.87244524     0.11700
H1547       H  0.63130091  0.16760201  0.79727303     0.14600
H1548       H  0.69527461  0.17444004  0.87750323     0.14300
C1549       C  0.58161421  0.38871464  0.66274131    -0.18500
C1550       C  0.59806077  0.37014473  0.67860864    -0.20700
C1551       C  0.62416798  0.35875118  0.66395012     0.19900
C1552       C  0.63392103  0.36619670  0.63305526    -0.03600
C1553       C  0.61731373  0.38492170  0.61703791    -0.06700
C1554       C  0.59103015  0.39621901  0.63197038     0.20200
C1555       C  0.62706398  0.39236406  0.58614090     0.18400
C1556       C  0.65317398  0.38097318  0.57148421    -0.18200
C1557       C  0.66962102  0.36240417  0.58735189    -0.20400
C1558       C  0.66020210  0.35489775  0.61812079     0.19900
C1559       C  0.67638590  0.33613394  0.63407531    -0.33400
C1560       C  0.66644211  0.32835931  0.66462701     0.00600
C1561       C  0.64048784  0.33989094  0.67951459    -0.24800
C1562       C  0.57483621  0.41497436  0.61600763    -0.29300
C1563       C  0.58477067  0.42273967  0.58544835     0.06200
C1564       C  0.61073366  0.41121441  0.57056829    -0.28000
H1565       H  0.56152731  0.39722617  0.67455735     0.11000
H1566       H  0.59030093  0.36464455  0.70233301     0.12100
H1567       H  0.66093249  0.38647191  0.54775857     0.11200
H1568       H  0.68970690  0.35389186  0.57553557     0.10400
H1569       H  0.69636794  0.32730522  0.62245840     0.15800
H1570       H  0.63278391  0.33404714  0.70312901     0.11700
H1571       H  0.55484874  0.42379946  0.62761983     0.14000
H1572       H  0.61843209  0.41705184  0.54694944     0.14300
C1573       C  0.84763750  0.12067794  0.57153617    -0.18500
C1574       C  0.83182763  0.13949977  0.58751501    -0.20700
C1575       C  0.84158909  0.14676774  0.61823678     0.19900
C1576       C  0.86758425  0.13501402  0.63301331    -0.03600
C1577       C  0.88354869  0.11603052  0.61688160    -0.06700
C1578       C  0.87346710  0.10880033  0.58602245     0.20200
C1579       C  0.90954247  0.10427643  0.63165971     0.18400
C1580       C  0.91930613  0.11154529  0.66238008    -0.18200
C1581       C  0.90349661  0.13036656  0.67835863    -0.20400
C1582       C  0.87766535  0.14224238  0.66387327     0.19900
C1583       C  0.86185781  0.16129758  0.67960498    -0.33400
C1584       C  0.83603583  0.17315659  0.66492405     0.00600
C1585       C  0.82592113  0.16567094  0.63434195    -0.24800
C1586       C  0.88927042  0.08973981  0.57029498    -0.29300
C1587       C  0.91508836  0.07787890  0.58498108     0.06200
C1588       C  0.92520574  0.08536981  0.61555946    -0.28000
H1589       H  0.83961814  0.11537811  0.54785228     0.11000
H1590       H  0.81194097  0.14838082  0.57583017     0.12100
H1591       H  0.93919282  0.10266374  0.67406485     0.11200
H1592       H  0.91151554  0.13566601  0.70204339     0.10400
H1593       H  0.86972166  0.16693876  0.70321899     0.15800
H1594       H  0.80606937  0.17476183  0.62285184     0.11700
H1595       H  0.88140583  0.08409504  0.54668289     0.14600
H1596       H  0.94505486  0.07627810  0.62705303     0.14300
C1597       C  0.91442310  0.39238944  0.83428311    -0.18500
C1598       C  0.89834714  0.37347902  0.81883292    -0.20700
C1599       C  0.87493444  0.36010427  0.83511601     0.19900
C1600       C  0.86748294  0.36591773  0.86723312    -0.03600
C1601       C  0.88371910  0.38498863  0.88282937    -0.06700
C1602       C  0.90734816  0.39824369  0.86627347     0.20200
C1603       C  0.87626565  0.39080396  0.91494548     0.18400
C1604       C  0.85285562  0.37742723  0.93122980    -0.18200
C1605       C  0.83677962  0.35851653  0.91577958    -0.20400
C1606       C  0.84385166  0.35266410  0.88378784     0.19900
C1607       C  0.82783860  0.33372417  0.86811418    -0.33400
C1608       C  0.83543984  0.32766036  0.83625354     0.00600
C1609       C  0.85896611  0.34094910  0.81990145    -0.24800
C1610       C  0.92335253  0.41718963  0.88194272    -0.29300
C1611       C  0.91574472  0.42325914  0.91379979     0.06200
C1612       C  0.89222549  0.40996580  0.93015585    -0.28000
H1613       H  0.93242368  0.40243235  0.82120635     0.11000
H1614       H  0.90428271  0.36927506  0.79414517     0.12100
H1615       H  0.84691947  0.38163159  0.95591732     0.11200
H1616       H  0.81877878  0.34847401  0.92885588     0.10400
H1617       H  0.80981083  0.32346322  0.88088061     0.15800
H1618       H  0.86483021  0.33640307  0.79528688     0.11700
H1619       H  0.94137602  0.42745303  0.86917338     0.14600
H1620       H  0.88635753  0.41451563  0.95476776     0.14300
C1621       C  0.82653896  0.13417106  0.90840476    -0.18500
C1622       C  0.84260095  0.11530699  0.92404618    -0.20700
C1623       C  0.87111865  0.10608091  0.91145325     0.19900
C1624       C  0.88362673  0.11593797  0.88283417    -0.03600
C1625       C  0.86741730  0.13495779  0.86705028    -0.06700
C1626       C  0.83875053  0.14412025  0.87993279     0.20200
C1627       C  0.87992727  0.14481697  0.83843307     0.18400
C1628       C  0.90844297  0.13558871  0.82583821    -0.18200
C1629       C  0.92450472  0.11672426  0.84147961    -0.20400
C1630       C  0.91229496  0.10677706  0.86995384     0.19900
C1631       C  0.92813798  0.08774486  0.88566721    -0.33400
C1632       C  0.91565529  0.07773118  0.91404511     0.00600
C1633       C  0.88724186  0.08708254  0.92688342    -0.24800
C1634       C  0.82291476  0.16315940  0.86422747    -0.29300
C1635       C  0.83540354  0.17317992  0.83585667     0.06200
C1636       C  0.86381097  0.16382286  0.82301118    -0.28000
H1637       H  0.80456953  0.14100195  0.91860293     0.11000
H1638       H  0.83269877  0.10791429  0.94599816     0.12100
H1639       H  0.91834645  0.14298210  0.80388660     0.11200
H1640       H  0.94647412  0.10989397  0.83128261     0.10400
H1641       H  0.95004931  0.08061863  0.87566564     0.15800
H1642       H  0.87749572  0.07945033  0.94877827     0.11700
H1643       H  0.80100687  0.17028908  0.87423355     0.14600
H1644       H  0.87356060  0.17145928  0.80112029     0.14300
C1645       C  0.66556198  0.35887280  0.91478568    -0.18500
C1646       C  0.64959884  0.37767471  0.93063132    -0.20700
C1647       C  0.62562968  0.39086971  0.91493256     0.19900
C1648       C  0.61752778  0.38497998  0.88299879    -0.03600
C1649       C  0.63364622  0.36602589  0.86700680    -0.06700
C1650       C  0.65781292  0.35296115  0.88299047     0.20200
C1651       C  0.62554466  0.36013678  0.83507295     0.18400
C1652       C  0.60157555  0.37333164  0.81937385    -0.18200
C1653       C  0.58561073  0.39213209  0.83522016    -0.20400
C1654       C  0.59335956  0.39804332  0.86701553     0.19900
C1655       C  0.57748291  0.41687138  0.88303756    -0.33400
C1656       C  0.58570151  0.42302678  0.91468799     0.00600
C1657       C  0.60973955  0.40992537  0.93052739    -0.24800
C1658       C  0.67368666  0.33413047  0.86696968    -0.29300
C1659       C  0.66546729  0.32797542  0.83531950     0.06200
C1660       C  0.64143323  0.34108041  0.81947879    -0.28000
H1661       H  0.68400763  0.34896144  0.92740038     0.11000
H1662       H  0.65605521  0.38193575  0.95515620     0.12100
H1663       H  0.59511959  0.36907080  0.79484890     0.11200
H1664       H  0.56716369  0.40204252  0.82260584     0.10400
H1665       H  0.55904442  0.42698504  0.87066579     0.15800
H1666       H  0.61608543  0.41456062  0.95497810     0.11700
H1667       H  0.69212232  0.32401449  0.87934193     0.14600
H1668       H  0.63508653  0.33644566  0.79502820     0.14300
C1669       C  0.91693888  0.35559331  0.66052485    -0.18500
C1670       C  0.93258108  0.37449880  0.64452950    -0.20700
C1671       C  0.91604320  0.38938046  0.62283062     0.19900
C1672       C  0.88346448  0.38506016  0.61697932    -0.03600
C1673       C  0.86767651  0.36599752  0.63313504    -0.06700
C1674       C  0.88449917  0.35125750  0.65508538     0.20200
C1675       C  0.83509845  0.36167651  0.62728132     0.18400
C1676       C  0.81855957  0.37655961  0.60558526    -0.18200
C1677       C  0.83420192  0.39546401  0.58958894    -0.20400
C1678       C  0.86664246  0.39979765  0.59502578     0.19900
C1679       C  0.88252125  0.41866792  0.57901422    -0.33400
C1680       C  0.91484148  0.42326775  0.58508514     0.00600
C1681       C  0.93145732  0.40856963  0.60700437    -0.24800
C1682       C  0.86862283  0.33237998  0.67108588    -0.29300
C1683       C  0.83630497  0.32777641  0.66500578     0.06200
C1684       C  0.81968707  0.34248200  0.64309705    -0.28000
H1685       H  0.93021451  0.34437611  0.67720381     0.11000
H1686       H  0.95761452  0.37752570  0.64920066     0.12100
H1687       H  0.79352611  0.37353240  0.60091334     0.11200
H1688       H  0.82092687  0.40667995  0.57290815     0.10400
H1689       H  0.86957442  0.43005444  0.56224833     0.15800
H1690       H  0.95642364  0.41200849  0.61163441     0.11700
H1691       H  0.88157064  0.32098850  0.68784522     0.14600
H1692       H  0.79472208  0.33904136  0.63846136     0.14300
N1693       N  0.96336183  0.97255962  0.43936861    -0.06800
N1694       N  0.95825223  0.95492487  0.41852231    -0.59000
N1695       N  0.94127054  0.52831019  0.46168978    -0.06500
N1696       N  0.92073694  0.54605096  0.45669988    -0.61100
N1697       N  0.96345879  0.52840740  0.43943084    -0.06100
N1698       N  0.95846323  0.54624207  0.41879539    -0.58900
N1699       N  0.94134887  0.97243230  0.46181739    -0.05800
N1700       N  0.92092347  0.95462707  0.45682852    -0.61400
C1701       C  0.93177339  0.94382509  0.42979165     0.95300
C1702       C  0.93177052  0.55713600  0.42993685     0.95100
N1703       N  0.96262359  0.52840924  0.05961484    -0.07000
N1704       N  0.95749038  0.54616911  0.08024656    -0.59500
N1705       N  0.94067343  0.97261046  0.03737243    -0.05100
N1706       N  0.91997039  0.95498191  0.04238799    -0.60800
N1707       N  0.96281928  0.97241191  0.05964886    -0.07000
N1708       N  0.95778440  0.95449784  0.08015781    -0.59800
N1709       N  0.94072686  0.52850305  0.03709431    -0.04800
N1710       N  0.92028375  0.54638377  0.04188970    -0.60900
Mn1711     Mn  0.94002075  0.00045675  0.99948130     1.18400
C1712       C  0.93107704  0.55729128  0.06886897     0.97400
C1713       C  0.93100418  0.94376965  0.06906391     0.98100
N1714       N  0.53836081  0.52830386  0.43980747    -0.07100
N1715       N  0.54349338  0.54605093  0.41910712    -0.63400
N1716       N  0.56014155  0.97235015  0.46253863    -0.05900
N1717       N  0.58047370  0.95439472  0.45781083    -0.64000
N1718       N  0.53829458  0.97250023  0.43996317    -0.06600
N1719       N  0.54338875  0.95474891  0.41931836    -0.63600
N1720       N  0.56027244  0.52834118  0.46231200    -0.05500
N1721       N  0.58072193  0.54617203  0.45744948    -0.64300
Mn1722     Mn  0.50089375  0.50045329  0.43860122     1.10700
C1723       C  0.56992569  0.55710052  0.43045244     0.98700
C1724       C  0.56969076  0.94354959  0.43079258     0.98700
N1725       N  0.53763841  0.97253495  0.06024889    -0.06600
N1726       N  0.54241183  0.95461013  0.08080850    -0.62000
N1727       N  0.55978061  0.52850924  0.03776528    -0.05900
N1728       N  0.58016465  0.54637127  0.04262967    -0.58700
N1729       N  0.53756808  0.52859944  0.06000958    -0.07200
N1730       N  0.54241363  0.54654235  0.08048450    -0.61500
N1731       N  0.55974627  0.97247102  0.03791578    -0.06200
N1732       N  0.57996102  0.95447014  0.04273158    -0.58700
Mn1733     Mn  0.50016246  0.50048918  0.06093733     1.20200
Mn1734     Mn  0.56101456  0.50041450  0.00015451     1.10100
Cl1735     Cl  0.50052584  0.50045212  0.99979504    -0.86700
C1736       C  0.56884516  0.94343942  0.06952007     0.95700
C1737       C  0.56904433  0.55752705  0.06931474     0.95500
N1738       N  0.78832946  0.77860997  0.19036799    -0.06800
N1739       N  0.79336623  0.79654092  0.16988601    -0.59000
N1740       N  0.81039006  0.72250036  0.21286209    -0.06500
N1741       N  0.83083177  0.70462242  0.20804749    -0.61100
N1742       N  0.78849731  0.72261222  0.19033775    -0.06100
N1743       N  0.79363293  0.70486715  0.16968329    -0.58900
N1744       N  0.81047345  0.77839241  0.21264585    -0.05800
N1745       N  0.83117770  0.79602497  0.20765785    -0.61400
C1746       C  0.82014584  0.80725942  0.18099713     0.95300
C1747       C  0.82004352  0.69373536  0.18105221     0.95100
N1748       N  0.78764480  0.72254583  0.31052611    -0.07000
N1749       N  0.79262289  0.70469390  0.33114001    -0.59500
N1750       N  0.80979525  0.77852300  0.28819698    -0.05100
N1751       N  0.83023551  0.79631497  0.29320300    -0.60800
N1752       N  0.78778122  0.77839463  0.31064438    -0.07000
N1753       N  0.79290576  0.79601555  0.33150788    -0.59800
N1754       N  0.80983350  0.72264556  0.28826740    -0.04800
N1755       N  0.83034991  0.70488972  0.29323632    -0.60900
Mn1756     Mn  0.81110667  0.75052170  0.25050565     1.18400
C1757       C  0.81930521  0.69379229  0.31998572     0.97400
C1758       C  0.81939494  0.80710769  0.32024947     0.98100
N1759       N  0.71354811  0.72244869  0.18993673    -0.07100
N1760       N  0.70868417  0.70452690  0.16943372    -0.63400
N1761       N  0.69140458  0.77857192  0.21209095    -0.05900
N1762       N  0.67121118  0.79659106  0.20730074    -0.64000
N1763       N  0.71351556  0.77851338  0.18976121    -0.06600
N1764       N  0.70876573  0.79645979  0.16922926    -0.63600
N1765       N  0.69133466  0.72253320  0.21218042    -0.05500
N1766       N  0.67093197  0.70468843  0.20728752    -0.64300
Mn1767     Mn  0.75097236  0.75054521  0.18904397     1.10700
C1768       C  0.68204111  0.69354930  0.18058566     0.98700
C1769       C  0.68234372  0.80763821  0.18053102     0.98700
N1770       N  0.71284450  0.77848506  0.31003873    -0.06600
N1771       N  0.70776006  0.79623431  0.33068997    -0.62000
N1772       N  0.69083393  0.72265868  0.28764176    -0.05900
N1773       N  0.67036816  0.70483703  0.29249841    -0.58700
N1774       N  0.71274349  0.72268155  0.31014858    -0.07200
N1775       N  0.70759428  0.70493409  0.33084317    -0.61500
N1776       N  0.69100026  0.77864975  0.28746070    -0.06200
N1777       N  0.67068120  0.79661279  0.29219190    -0.58700
Mn1778     Mn  0.75022879  0.75051632  0.31138141     1.20200
Mn1779     Mn  0.69011405  0.75060538  0.24982163     1.10100
Cl1780     Cl  0.75060241  0.75054720  0.25018684    -0.86700
C1781       C  0.68146745  0.80744747  0.31921542     0.95700
C1782       C  0.68115399  0.69389896  0.31949361     0.95500
C1783       C  0.59311830  0.63500776  0.17457806    -0.18500
C1784       C  0.57700230  0.61627534  0.15877109    -0.20700
C1785       C  0.58892040  0.60670139  0.12995915     0.19900
C1786       C  0.61737885  0.61611215  0.11693799    -0.03600
C1787       C  0.63366274  0.63501004  0.13290851    -0.06700
C1788       C  0.62143848  0.64449099  0.16185509     0.20200
C1789       C  0.66212374  0.64441872  0.11989011     0.18400
C1790       C  0.67403821  0.63484799  0.09107453    -0.18200
C1791       C  0.65792245  0.61611479  0.07526790    -0.20400
C1792       C  0.62960571  0.60662787  0.08799445     0.19900
C1793       C  0.61341641  0.58774359  0.07237878    -0.33400
C1794       C  0.58518132  0.57812755  0.08532675     0.00600
C1795       C  0.57299127  0.58780586  0.11404907    -0.24800
C1796       C  0.63763823  0.66336381  0.17748242    -0.29300
C1797       C  0.66588221  0.67297188  0.16454460     0.06200
C1798       C  0.67806329  0.66330401  0.13581196    -0.28000
H1799       H  0.58341053  0.64209304  0.19677646     0.11000
H1800       H  0.55520291  0.60925790  0.16910717     0.12100
H1801       H  0.69583832  0.64186482  0.08073910     0.11200
H1802       H  0.66763092  0.60902847  0.05307051     0.10400
H1803       H  0.62297830  0.58039921  0.05024973     0.15800
H1804       H  0.55125772  0.58049431  0.12419756     0.11700
H1805       H  0.62808117  0.67070187  0.19961748     0.14600
H1806       H  0.69980218  0.67061141  0.12566970     0.14300
C1807       C  0.59741475  0.63100688  0.32174860    -0.18500
C1808       C  0.58157454  0.61208904  0.33749932    -0.20700
C1809       C  0.59142381  0.60446775  0.36806967     0.19900
C1810       C  0.61753148  0.61596950  0.38292378    -0.03600
C1811       C  0.63352224  0.63504371  0.36702681    -0.06700
C1812       C  0.62335791  0.64261219  0.33631693     0.20200
C1813       C  0.65963107  0.64654389  0.38188067     0.18400
C1814       C  0.66947955  0.63892362  0.41245167    -0.18200
C1815       C  0.65363899  0.62000666  0.42820256    -0.20400
C1816       C  0.62769690  0.60840106  0.41363321     0.19900
C1817       C  0.61184427  0.58929279  0.42915756    -0.33400
C1818       C  0.58591457  0.57769504  0.41442173     0.00600
C1819       C  0.57572683  0.58547219  0.38396690    -0.24800
C1820       C  0.63921492  0.66171842  0.32079052    -0.29300
C1821       C  0.66514908  0.67331174  0.33552499     0.06200
C1822       C  0.67533244  0.66553561  0.36598171    -0.28000
H1823       H  0.58934026  0.63658790  0.29817352     0.11000
H1824       H  0.56159960  0.60341358  0.32576218     0.12100
H1825       H  0.68945520  0.64759858  0.42418860     0.11200
H1826       H  0.66171372  0.61442530  0.45177768     0.10400
H1827       H  0.61976128  0.58340918  0.45267411     0.15800
H1828       H  0.55578770  0.57656472  0.37244540     0.11700
H1829       H  0.63130078  0.66760193  0.29727304     0.14600
H1830       H  0.69527413  0.67443994  0.37750300     0.14300
C1831       C  0.58161435  0.88871466  0.16274121    -0.18500
C1832       C  0.59806083  0.87014474  0.17860871    -0.20700
C1833       C  0.62416803  0.85875116  0.16395029     0.19900
C1834       C  0.63392109  0.86619666  0.13305530    -0.03600
C1835       C  0.61731382  0.88492165  0.11703779    -0.06700
C1836       C  0.59103034  0.89621898  0.13197018     0.20200
C1837       C  0.62706404  0.89236406  0.08614074     0.18400
C1838       C  0.65317399  0.88097322  0.07148410    -0.18200
C1839       C  0.66962104  0.86240426  0.08735183    -0.20400
C1840       C  0.66020225  0.85489771  0.11812076     0.19900
C1841       C  0.67638599  0.83613393  0.13407527    -0.33400
C1842       C  0.66644217  0.82835926  0.16462702     0.00600
C1843       C  0.64048790  0.83989092  0.17951465    -0.24800
C1844       C  0.57483624  0.91497436  0.11600743    -0.29300
C1845       C  0.58477079  0.92273970  0.08544812     0.06200
C1846       C  0.61073366  0.91121435  0.07056803    -0.28000
H1847       H  0.56152757  0.89722612  0.17455699     0.11000
H1848       H  0.59030092  0.86464462  0.20233316     0.12100
H1849       H  0.66093214  0.88647195  0.04775856     0.11200
H1850       H  0.68970705  0.85389199  0.07553512     0.10400
H1851       H  0.69636814  0.82730508  0.12245805     0.15800
H1852       H  0.63278403  0.83404716  0.20312941     0.11700
H1853       H  0.55484896  0.92379946  0.12761956     0.14000
H1854       H  0.61843208  0.91705178  0.04694890     0.14300
C1855       C  0.84763745  0.62067800  0.07153597    -0.18500
C1856       C  0.83182755  0.63949982  0.08751497    -0.20700
C1857       C  0.84158906  0.64676775  0.11823681     0.19900
C1858       C  0.86758428  0.63501403  0.13301328    -0.03600
C1859       C  0.88354867  0.61603054  0.11688154    -0.06700
C1860       C  0.87346707  0.60880036  0.08602229     0.20200
C1861       C  0.90954244  0.60427645  0.13165964     0.18400
C1862       C  0.91930601  0.61154533  0.16238007    -0.18200
C1863       C  0.90349651  0.63036663  0.17835863    -0.20400
C1864       C  0.87766529  0.64224235  0.16387324     0.19900
C1865       C  0.86185782  0.66129759  0.17960487    -0.33400
C1866       C  0.83603581  0.67315654  0.16492400     0.00600
C1867       C  0.82592114  0.66567093  0.13434204    -0.24800
C1868       C  0.88927055  0.58973983  0.07029499    -0.29300
C1869       C  0.91508844  0.57787887  0.08498111     0.06200
C1870       C  0.92520569  0.58536980  0.11555953    -0.28000
H1871       H  0.83961817  0.61537817  0.04785163     0.11000
H1872       H  0.81194083  0.64838109  0.07583046     0.12100
H1873       H  0.93919230  0.60266368  0.17406524     0.11200
H1874       H  0.91151573  0.63566643  0.20204298     0.10400
H1875       H  0.86972136  0.66693866  0.20321892     0.15800
H1876       H  0.80606924  0.67476199  0.12285211     0.11700
H1877       H  0.88140604  0.58409508  0.04668283     0.14600
H1878       H  0.94505482  0.57627825  0.12705334     0.14300
C1879       C  0.91442315  0.89238948  0.33428311    -0.18500
C1880       C  0.89834720  0.87347900  0.31883300    -0.20700
C1881       C  0.87493438  0.86010437  0.33511635     0.19900
C1882       C  0.86748292  0.86591774  0.36723333    -0.03600
C1883       C  0.88371914  0.88498867  0.38282951    -0.06700
C1884       C  0.90734824  0.89824373  0.36627352     0.20200
C1885       C  0.87626557  0.89080403  0.41494557     0.18400
C1886       C  0.85285551  0.87742715  0.43122976    -0.18200
C1887       C  0.83677954  0.85851643  0.41577961    -0.20400
C1888       C  0.84385143  0.85266398  0.38378804     0.19900
C1889       C  0.82783846  0.83372405  0.36811434    -0.33400
C1890       C  0.83543973  0.82766032  0.33625385     0.00600
C1891       C  0.85896608  0.84094912  0.31990178    -0.24800
C1892       C  0.92335253  0.91718967  0.38194291    -0.29300
C1893       C  0.91574457  0.92325917  0.41380010     0.06200
C1894       C  0.89222536  0.90996581  0.43015608    -0.28000
H1895       H  0.93242388  0.90243230  0.32120626     0.11000
H1896       H  0.90428246  0.86927517  0.29414535     0.12100
H1897       H  0.84691950  0.88163154  0.45591694     0.11200
H1898       H  0.81877825  0.84847395  0.42885634     0.10400
H1899       H  0.80981057  0.82346299  0.38088096     0.15800
H1900       H  0.86483010  0.83640313  0.29528769     0.11700
H1901       H  0.94137612  0.92745311  0.36917375     0.14600
H1902       H  0.88635705  0.91451576  0.45476842     0.14300
C1903       C  0.82653909  0.63417098  0.40840476    -0.18500
C1904       C  0.84260101  0.61530694  0.42404634    -0.20700
C1905       C  0.87111857  0.60608079  0.41145344     0.19900
C1906       C  0.88362679  0.61593792  0.38283429    -0.03600
C1907       C  0.86741734  0.63495772  0.36705037    -0.06700
C1908       C  0.83875077  0.64412009  0.37993265     0.20200
C1909       C  0.87992728  0.64481693  0.33843337     0.18400
C1910       C  0.90844293  0.63558868  0.32583837    -0.18200
C1911       C  0.92450476  0.61672428  0.34147966    -0.20400
C1912       C  0.91229517  0.60677699  0.36995380     0.19900
C1913       C  0.92813812  0.58774481  0.38566711    -0.33400
C1914       C  0.91565543  0.57773117  0.41404505     0.00600
C1915       C  0.88724190  0.58708250  0.42688344    -0.24800
C1916       C  0.82291484  0.66315931  0.36422741    -0.29300
C1917       C  0.83540358  0.67317986  0.33585662     0.06200
C1918       C  0.86381104  0.66382280  0.32301125    -0.28000
H1919       H  0.80457013  0.64100182  0.41860238     0.11000
H1920       H  0.83269827  0.60791424  0.44599872     0.12100
H1921       H  0.91834634  0.64298220  0.30388729     0.11200
H1922       H  0.94647430  0.60989403  0.33128222     0.10400
H1923       H  0.95004994  0.58061858  0.37566547     0.15800
H1924       H  0.87749554  0.57945014  0.44877820     0.11700
H1925       H  0.80100695  0.67028857  0.37423313     0.14600
H1926       H  0.87356106  0.67145941  0.30112083     0.14300
C1927       C  0.66556209  0.85887273  0.41478565    -0.18500
C1928       C  0.64959892  0.87767462  0.43063120    -0.20700
C1929       C  0.62562968  0.89086962  0.41493225     0.19900
C1930       C  0.61752786  0.88497992  0.38299876    -0.03600
C1931       C  0.63364646  0.86602583  0.36700682    -0.06700
C1932       C  0.65781312  0.85296098  0.38299063     0.20200
C1933       C  0.62554487  0.86013673  0.33507316     0.18400
C1934       C  0.60157579  0.87333159  0.31937416    -0.18200
C1935       C  0.58561096  0.89213209  0.33522050    -0.20400
C1936       C  0.59335957  0.89804326  0.36701573     0.19900
C1937       C  0.57748276  0.91687144  0.38303767    -0.33400
C1938       C  0.58570141  0.92302681  0.41468795     0.00600
C1939       C  0.60973951  0.90992533  0.43052721    -0.24800
C1940       C  0.67368682  0.83413041  0.36696969    -0.29300
C1941       C  0.66546737  0.82797538  0.33531960     0.06200
C1942       C  0.64143328  0.84108041  0.31947880    -0.28000
H1943       H  0.68400776  0.84896122  0.42740075     0.11000
H1944       H  0.65605518  0.88193559  0.45515569     0.12100
H1945       H  0.59511970  0.86907097  0.29484960     0.11200
H1946       H  0.56716429  0.90204237  0.32260629     0.10400
H1947       H  0.55904381  0.92698481  0.37066624     0.15800
H1948       H  0.61608558  0.91456066  0.45497749     0.11700
H1949       H  0.69212285  0.82401435  0.37934193     0.14600
H1950       H  0.63508654  0.83644580  0.29502832     0.14300
C1951       C  0.91693879  0.85559329  0.16052486    -0.18500
C1952       C  0.93258108  0.87449874  0.14452956    -0.20700
C1953       C  0.91604334  0.88938042  0.12283067     0.19900
C1954       C  0.88346459  0.88506018  0.11697931    -0.03600
C1955       C  0.86767656  0.86599745  0.13313495    -0.06700
C1956       C  0.88449907  0.85125751  0.15508548     0.20200
C1957       C  0.83509843  0.86167649  0.12728138     0.18400
C1958       C  0.81855956  0.87655949  0.10558527    -0.18200
C1959       C  0.83420199  0.89546390  0.08958905    -0.20400
C1960       C  0.86664249  0.89979768  0.09502578     0.19900
C1961       C  0.88252114  0.91866796  0.07901414    -0.33400
C1962       C  0.91484141  0.92326771  0.08508517     0.00600
C1963       C  0.93145735  0.90856952  0.10700443    -0.24800
C1964       C  0.86862288  0.83237987  0.17108596    -0.29300
C1965       C  0.83630502  0.82777635  0.16500598     0.06200
C1966       C  0.81968726  0.84248186  0.14309704    -0.28000
H1967       H  0.93021412  0.84437647  0.17720415     0.11000
H1968       H  0.95761466  0.87752545  0.14920089     0.12100
H1969       H  0.79352605  0.87353223  0.10091316     0.11200
H1970       H  0.82092707  0.90667983  0.07290827     0.10400
H1971       H  0.86957412  0.93005474  0.06224834     0.15800
H1972       H  0.95642380  0.91200829  0.11163444     0.11700
H1973       H  0.88157080  0.82098844  0.18784552     0.14600
H1974       H  0.79472217  0.83904119  0.13846144     0.14300
N1975       N  0.96336186  0.97255961  0.93936868    -0.06800
N1976       N  0.95825223  0.95492489  0.91852236    -0.59000
N1977       N  0.94127058  0.52831019  0.96168989    -0.06500
N1978       N  0.92073701  0.54605094  0.95669996    -0.61100
N1979       N  0.96345882  0.52840740  0.93943092    -0.06100
N1980       N  0.95846329  0.54624206  0.91879545    -0.58900
N1981       N  0.94134881  0.97243229  0.96181740    -0.05800
N1982       N  0.92092358  0.95462697  0.95682843    -0.61400
C1983       C  0.93177341  0.94382503  0.92979152     0.95300
C1984       C  0.93177055  0.55713596  0.92993688     0.95100
N1985       N  0.96262360  0.52840930  0.55961475    -0.07000
N1986       N  0.95749036  0.54616915  0.58024648    -0.59500
N1987       N  0.94067349  0.97261048  0.53737241    -0.05100
N1988       N  0.91997048  0.95498194  0.54238798    -0.60800
N1989       N  0.96281939  0.97241186  0.55964878    -0.07000
N1990       N  0.95778439  0.95449788  0.58015777    -0.59800
N1991       N  0.94072674  0.52850307  0.53709427    -0.04800
N1992       N  0.92028374  0.54638384  0.54188964    -0.60900
Mn1993     Mn  0.94002081  0.00045675  0.49948128     1.18400
C1994       C  0.93107689  0.55729126  0.56886904     0.97400
C1995       C  0.93100422  0.94376970  0.56906387     0.98100
N1996       N  0.53836079  0.52830384  0.93980743    -0.07100
N1997       N  0.54349343  0.54605092  0.91910715    -0.63400
N1998       N  0.56014153  0.97235018  0.96253862    -0.05900
N1999       N  0.58047369  0.95439477  0.95781082    -0.64000
N2000       N  0.53829454  0.97250022  0.93996311    -0.06600
N2001       N  0.54338893  0.95474901  0.91931822    -0.63600
N2002       N  0.56027237  0.52834122  0.96231202    -0.05500
N2003       N  0.58072191  0.54617205  0.95744952    -0.64300
Mn2004     Mn  0.50089371  0.50045325  0.93860116     1.10700
C2005       C  0.56992569  0.55710052  0.93045248     0.98700
C2006       C  0.56969084  0.94354959  0.93079253     0.98700
N2007       N  0.53763847  0.97253497  0.56024886    -0.06600
N2008       N  0.54241181  0.95461014  0.58080847    -0.62000
N2009       N  0.55978064  0.52850926  0.53776530    -0.05900
N2010       N  0.58016478  0.54637125  0.54262971    -0.58700
N2011       N  0.53756814  0.52859946  0.56000961    -0.07200
N2012       N  0.54241366  0.54654241  0.58048451    -0.61500
N2013       N  0.55974642  0.97247105  0.53791586    -0.06200
N2014       N  0.57996098  0.95447004  0.54273164    -0.58700
Mn2015     Mn  0.50016251  0.50048918  0.56093729     1.20200
Mn2016     Mn  0.56101457  0.50041447  0.50015453     1.10100
Cl2017     Cl  0.50052580  0.50045216  0.49979503    -0.86700
C2018       C  0.56884519  0.94343943  0.56952021     0.95700
C2019       C  0.56904443  0.55752703  0.56931477     0.95500
N2020       N  0.78832954  0.77861000  0.69036807    -0.06800
N2021       N  0.79336626  0.79654093  0.66988602    -0.59000
N2022       N  0.81039010  0.72250031  0.71286216    -0.06500
N2023       N  0.83083191  0.70462246  0.70804745    -0.61100
N2024       N  0.78849740  0.72261230  0.69033773    -0.06100
N2025       N  0.79363295  0.70486721  0.66968334    -0.58900
N2026       N  0.81047361  0.77839241  0.71264586    -0.05800
N2027       N  0.83117775  0.79602500  0.70765773    -0.61400
C2028       C  0.82014589  0.80725945  0.68099695     0.95300
C2029       C  0.82004347  0.69373533  0.68105231     0.95100
N2030       N  0.78764483  0.72254575  0.81052611    -0.07000
N2031       N  0.79262294  0.70469379  0.83113995    -0.59500
N2032       N  0.80979539  0.77852297  0.78819702    -0.05100
N2033       N  0.83023561  0.79631495  0.79320291    -0.60800
N2034       N  0.78778131  0.77839460  0.81064448    -0.07000
N2035       N  0.79290579  0.79601554  0.83150792    -0.59800
N2036       N  0.80983361  0.72264559  0.78826744    -0.04800
N2037       N  0.83034998  0.70488973  0.79323625    -0.60900
Mn2038     Mn  0.81110680  0.75052169  0.75050564     1.18400
C2039       C  0.81930529  0.69379227  0.81998566     0.97400
C2040       C  0.81939499  0.80710768  0.82024940     0.98100
N2041       N  0.71354813  0.72244874  0.68993667    -0.07100
N2042       N  0.70868404  0.70452693  0.66943378    -0.63400
N2043       N  0.69140469  0.77857197  0.71209098    -0.05900
N2044       N  0.67121122  0.79659106  0.70730062    -0.64000
N2045       N  0.71351570  0.77851342  0.68976128    -0.06600
N2046       N  0.70876575  0.79645976  0.66922925    -0.63600
N2047       N  0.69133480  0.72253320  0.71218052    -0.05500
N2048       N  0.67093199  0.70468852  0.70728754    -0.64300
Mn2049     Mn  0.75097242  0.75054526  0.68904392     1.10700
C2050       C  0.68204101  0.69354928  0.68058570     0.98700
C2051       C  0.68234381  0.80763830  0.68053104     0.98700
N2052       N  0.71284464  0.77848515  0.81003881    -0.06600
N2053       N  0.70776007  0.79623440  0.83069000    -0.62000
N2054       N  0.69083395  0.72265873  0.78764184    -0.05900
N2055       N  0.67036822  0.70483703  0.79249838    -0.58700
N2056       N  0.71274357  0.72268152  0.81014856    -0.07200
N2057       N  0.70759434  0.70493407  0.83084320    -0.61500
N2058       N  0.69100034  0.77864971  0.78746077    -0.06200
N2059       N  0.67068126  0.79661269  0.79219186    -0.58700
Mn2060     Mn  0.75022882  0.75051629  0.81138141     1.20200
Mn2061     Mn  0.69011409  0.75060539  0.74982164     1.10100
Cl2062     Cl  0.75060250  0.75054725  0.75018685    -0.86700
C2063       C  0.68146742  0.80744747  0.81921539     0.95700
C2064       C  0.68115405  0.69389897  0.81949361     0.95500
C2065       C  0.59311819  0.63500779  0.67457820    -0.18500
C2066       C  0.57700226  0.61627537  0.65877112    -0.20700
C2067       C  0.58892051  0.60670151  0.62995906     0.19900
C2068       C  0.61737892  0.61611211  0.61693804    -0.03600
C2069       C  0.63366264  0.63501000  0.63290856    -0.06700
C2070       C  0.62143834  0.64449099  0.66185528     0.20200
C2071       C  0.66212339  0.64441859  0.61989023     0.18400
C2072       C  0.67403807  0.63484793  0.59107458    -0.18200
C2073       C  0.65792243  0.61611472  0.57526787    -0.20400
C2074       C  0.62960574  0.60662784  0.58799425     0.19900
C2075       C  0.61341650  0.58774352  0.57237870    -0.33400
C2076       C  0.58518146  0.57812758  0.58532664     0.00600
C2077       C  0.57299142  0.58780592  0.61404897    -0.24800
C2078       C  0.63763816  0.66336378  0.67748252    -0.29300
C2079       C  0.66588199  0.67297181  0.66454469     0.06200
C2080       C  0.67806300  0.66330385  0.63581201    -0.28000
H2081       H  0.58341025  0.64209301  0.69677702     0.11000
H2082       H  0.55520287  0.60925793  0.66910667     0.12100
H2083       H  0.69583773  0.64186501  0.58073942     0.11200
H2084       H  0.66763135  0.60902842  0.55307008     0.10400
H2085       H  0.62297849  0.58039919  0.55024959     0.15800
H2086       H  0.55125791  0.58049451  0.62419714     0.11700
H2087       H  0.62808116  0.67070191  0.69961755     0.14600
H2088       H  0.69980154  0.67061107  0.62566981     0.14300
C2089       C  0.59741468  0.63100685  0.82174831    -0.18500
C2090       C  0.58157444  0.61208897  0.83749896    -0.20700
C2091       C  0.59142356  0.60446759  0.86806945     0.19900
C2092       C  0.61753140  0.61596941  0.88292373    -0.03600
C2093       C  0.63352228  0.63504365  0.86702672    -0.06700
C2094       C  0.62335794  0.64261217  0.83631676     0.20200
C2095       C  0.65963117  0.64654391  0.88188063     0.18400
C2096       C  0.66947950  0.63892363  0.91245159    -0.18200
C2097       C  0.65363892  0.62000669  0.92820247    -0.20400
C2098       C  0.62769686  0.60840097  0.91363325     0.19900
C2099       C  0.61184421  0.58929272  0.92915753    -0.33400
C2100       C  0.58591439  0.57769498  0.91442165     0.00600
C2101       C  0.57572663  0.58547204  0.88396672    -0.24800
C2102       C  0.63921506  0.66171842  0.82079054    -0.29300
C2103       C  0.66514923  0.67331179  0.83552509     0.06200
C2104       C  0.67533259  0.66553560  0.86598175    -0.28000
H2105       H  0.58934026  0.63658786  0.79817288     0.11000
H2106       H  0.56159946  0.60341338  0.82576169     0.12100
H2107       H  0.68945512  0.64759853  0.92418836     0.11200
H2108       H  0.66171366  0.61442547  0.95177776     0.10400
H2109       H  0.61976096  0.58340926  0.95267452     0.15800
H2110       H  0.55578695  0.57656444  0.87244510     0.11700
H2111       H  0.63130095  0.66760202  0.79727304     0.14600
H2112       H  0.69527465  0.67444004  0.87750327     0.14300
C2113       C  0.58161426  0.88871465  0.66274133    -0.18500
C2114       C  0.59806081  0.87014473  0.67860866    -0.20700
C2115       C  0.62416803  0.85875118  0.66395013     0.19900
C2116       C  0.63392107  0.86619671  0.63305528    -0.03600
C2117       C  0.61731375  0.88492171  0.61703792    -0.06700
C2118       C  0.59103015  0.89621903  0.63197040     0.20200
C2119       C  0.62706396  0.89236405  0.58614089     0.18400
C2120       C  0.65317397  0.88097321  0.57148421    -0.18200
C2121       C  0.66962104  0.86240420  0.58735189    -0.20400
C2122       C  0.66020214  0.85489776  0.61812078     0.19900
C2123       C  0.67638593  0.83613394  0.63407530    -0.33400
C2124       C  0.66644211  0.82835931  0.66462698     0.00600
C2125       C  0.64048787  0.83989094  0.67951459    -0.24800
C2126       C  0.57483617  0.91497437  0.61600763    -0.29300
C2127       C  0.58477063  0.92273966  0.58544833     0.06200
C2128       C  0.61073362  0.91121437  0.57056824    -0.28000
H2129       H  0.56152735  0.89722616  0.67455738     0.11000
H2130       H  0.59030097  0.86464455  0.70233302     0.12100
H2131       H  0.66093243  0.88647193  0.54775857     0.11200
H2132       H  0.68970692  0.85389189  0.57553555     0.10400
H2133       H  0.69636796  0.82730520  0.62245840     0.15800
H2134       H  0.63278395  0.83404710  0.70312900     0.11700
H2135       H  0.55484870  0.92379952  0.62761993     0.14000
H2136       H  0.61843199  0.91705169  0.54694934     0.14300
C2137       C  0.84763741  0.62067801  0.57153611    -0.18500
C2138       C  0.83182751  0.63949984  0.58751497    -0.20700
C2139       C  0.84158899  0.64676771  0.61823676     0.19900
C2140       C  0.86758429  0.63501402  0.63301327    -0.03600
C2141       C  0.88354866  0.61603049  0.61688163    -0.06700
C2142       C  0.87346707  0.60880036  0.58602244     0.20200
C2143       C  0.90954253  0.60427645  0.63165971     0.18400
C2144       C  0.91930610  0.61154530  0.66238013    -0.18200
C2145       C  0.90349658  0.63036661  0.67835868    -0.20400
C2146       C  0.87766532  0.64224238  0.66387329     0.19900
C2147       C  0.86185780  0.66129761  0.67960494    -0.33400
C2148       C  0.83603581  0.67315658  0.66492404     0.00600
C2149       C  0.82592118  0.66567090  0.63434199    -0.24800
C2150       C  0.88927042  0.58973984  0.57029496    -0.29300
C2151       C  0.91508836  0.57787890  0.58498110     0.06200
C2152       C  0.92520572  0.58536981  0.61555947    -0.28000
H2153       H  0.83961815  0.61537811  0.54785222     0.11000
H2154       H  0.81194079  0.64838113  0.57583005     0.12100
H2155       H  0.93919289  0.60266372  0.67406487     0.11200
H2156       H  0.91151558  0.63566634  0.70204338     0.10400
H2157       H  0.86972168  0.66693887  0.70321890     0.15800
H2158       H  0.80606926  0.67476178  0.62285193     0.11700
H2159       H  0.88140586  0.58409506  0.54668287     0.14600
H2160       H  0.94505493  0.57627810  0.62705305     0.14300
C2161       C  0.91442308  0.89238947  0.83428312    -0.18500
C2162       C  0.89834715  0.87347902  0.81883294    -0.20700
C2163       C  0.87493444  0.86010425  0.83511605     0.19900
C2164       C  0.86748291  0.86591772  0.86723316    -0.03600
C2165       C  0.88371905  0.88498864  0.88282938    -0.06700
C2166       C  0.90734822  0.89824369  0.86627348     0.20200
C2167       C  0.87626561  0.89080394  0.91494550     0.18400
C2168       C  0.85285551  0.87742720  0.93122986    -0.18200
C2169       C  0.83677954  0.85851651  0.91577963    -0.20400
C2170       C  0.84385155  0.85266408  0.88378792     0.19900
C2171       C  0.82783857  0.83372416  0.86811417    -0.33400
C2172       C  0.83543984  0.82766038  0.83625354     0.00600
C2173       C  0.85896612  0.84094911  0.81990146    -0.24800
C2174       C  0.92335252  0.91718965  0.88194271    -0.29300
C2175       C  0.91574472  0.92325912  0.91379979     0.06200
C2176       C  0.89222548  0.90996577  0.93015586    -0.28000
H2177       H  0.93242375  0.90243238  0.82120636     0.11000
H2178       H  0.90428276  0.86927503  0.79414523     0.12100
H2179       H  0.84691946  0.88163159  0.95591738     0.11200
H2180       H  0.81877821  0.84847405  0.92885595     0.10400
H2181       H  0.80981072  0.82346318  0.88088058     0.15800
H2182       H  0.86483019  0.83640308  0.79528690     0.11700
H2183       H  0.94137609  0.92745306  0.86917335     0.14600
H2184       H  0.88635755  0.91451561  0.95476777     0.14300
C2185       C  0.82653897  0.63417103  0.90840474    -0.18500
C2186       C  0.84260098  0.61530699  0.92404623    -0.20700
C2187       C  0.87111866  0.60608092  0.91145326     0.19900
C2188       C  0.88362675  0.61593797  0.88283418    -0.03600
C2189       C  0.86741734  0.63495777  0.86705024    -0.06700
C2190       C  0.83875065  0.64412021  0.87993273     0.20200
C2191       C  0.87992733  0.64481697  0.83843302     0.18400
C2192       C  0.90844301  0.63558871  0.82583822    -0.18200
C2193       C  0.92450473  0.61672427  0.84147963    -0.20400
C2194       C  0.91229498  0.60677706  0.86995386     0.19900
C2195       C  0.92813798  0.58774484  0.88566720    -0.33400
C2196       C  0.91565536  0.57773119  0.91404512     0.00600
C2197       C  0.88724188  0.58708252  0.92688340    -0.24800
C2198       C  0.82291481  0.66315936  0.86422739    -0.29300
C2199       C  0.83540363  0.67317990  0.83585654     0.06200
C2200       C  0.86381108  0.66382286  0.82301111    -0.28000
H2201       H  0.80456963  0.64100189  0.91860291     0.11000
H2202       H  0.83269879  0.60791432  0.94599824     0.12100
H2203       H  0.91834649  0.64298210  0.80388661     0.11200
H2204       H  0.94647413  0.60989398  0.83128263     0.10400
H2205       H  0.95004939  0.58061862  0.87566563     0.15800
H2206       H  0.87749577  0.57945035  0.94877824     0.11700
H2207       H  0.80100694  0.67028877  0.87423326     0.14600
H2208       H  0.87356099  0.67145935  0.80112024     0.14300
C2209       C  0.66556200  0.85887281  0.91478570    -0.18500
C2210       C  0.64959891  0.87767469  0.93063138    -0.20700
C2211       C  0.62562976  0.89086969  0.91493264     0.19900
C2212       C  0.61752784  0.88497991  0.88299886    -0.03600
C2213       C  0.63364631  0.86602585  0.86700683    -0.06700
C2214       C  0.65781291  0.85296112  0.88299050     0.20200
C2215       C  0.62554475  0.86013672  0.83507295     0.18400
C2216       C  0.60157564  0.87333154  0.81937391    -0.18200
C2217       C  0.58561086  0.89213201  0.83522025    -0.20400
C2218       C  0.59335969  0.89804321  0.86701566     0.19900
C2219       C  0.57748296  0.91687135  0.88303759    -0.33400
C2220       C  0.58570156  0.92302675  0.91468806     0.00600
C2221       C  0.60973962  0.90992539  0.93052743    -0.24800
C2222       C  0.67368666  0.83413049  0.86696967    -0.29300
C2223       C  0.66546730  0.82797543  0.83531949     0.06200
C2224       C  0.64143324  0.84108036  0.81947878    -0.28000
H2225       H  0.68400766  0.84896147  0.92740030     0.11000
H2226       H  0.65605557  0.88193575  0.95515627     0.12100
H2227       H  0.59511963  0.86907086  0.79484893     0.11200
H2228       H  0.56716419  0.90204247  0.82260595     0.10400
H2229       H  0.55904439  0.92698471  0.87066602     0.15800
H2230       H  0.61608554  0.91456066  0.95497811     0.11700
H2231       H  0.69212236  0.82401456  0.87934189     0.14600
H2232       H  0.63508659  0.83644569  0.79502815     0.14300
C2233       C  0.91693882  0.85559334  0.66052482    -0.18500
C2234       C  0.93258103  0.87449883  0.64452947    -0.20700
C2235       C  0.91604321  0.88938049  0.62283060     0.19900
C2236       C  0.88346447  0.88506020  0.61697929    -0.03600
C2237       C  0.86767648  0.86599755  0.63313500    -0.06700
C2238       C  0.88449907  0.85125762  0.65508524     0.20200
C2239       C  0.83509842  0.86167650  0.62728130     0.18400
C2240       C  0.81855960  0.87655958  0.60558532    -0.18200
C2241       C  0.83420202  0.89546398  0.58958901    -0.20400
C2242       C  0.86664252  0.89979769  0.59502576     0.19900
C2243       C  0.88252125  0.91866801  0.57901413    -0.33400
C2244       C  0.91484149  0.92326780  0.58508506     0.00600
C2245       C  0.93145729  0.90856967  0.60700435    -0.24800
C2246       C  0.86862278  0.83238007  0.67108574    -0.29300
C2247       C  0.83630489  0.82777649  0.66500571     0.06200
C2248       C  0.81968705  0.84248199  0.64309698    -0.28000
H2249       H  0.93021418  0.84437624  0.67720375     0.11000
H2250       H  0.95761456  0.87752566  0.64920073     0.12100
H2251       H  0.79352612  0.87353242  0.60091333     0.11200
H2252       H  0.82092721  0.90667987  0.57290826     0.10400
H2253       H  0.86957436  0.93005470  0.56224825     0.15800
H2254       H  0.95642371  0.91200851  0.61163441     0.11700
H2255       H  0.88157049  0.82098865  0.68784478     0.14600
H2256       H  0.79472205  0.83904136  0.63846134     0.14300
loop_ 
_geom_bond_atom_site_label_1 
_geom_bond_atom_site_label_2 
_geom_bond_distance 
_geom_bond_site_symmetry_2 
_ccdc_geom_bond_type 
N1            N2   1.321       .  A
N1            N7   1.316       .  A
N1        Mn1722   2.202       .  S
N2            C9   1.354       .  A
N3            N5   1.315       .  A
N3            N4   1.319       .  A
N3         Mn865   2.196       .  S
N4           C10   1.352       .  A
N5            N6   1.320       .  A
N5        Mn1158   2.200       .  S
N6           C10   1.354       .  A
N7            N8   1.320       .  A
N7         Mn301   2.202       .  S
N8            C9   1.353       .  A
C9          C201   1.477       .  S
C10         C222   1.476       .  S
N11          N17   1.315       .  A
N11          N12   1.320       .  A
N11       Mn1169   2.202       .  S
N12          C20   1.353       .  A
N13          N14   1.320       .  A
N13          N15   1.315       .  A
N13         Mn19   2.198   1_554  S
N14          C21   1.353       .  A
N15          N16   1.320       .  A
N15       Mn1733   2.204       .  S
N16          C21   1.354       .  A
N17          N18   1.321       .  A
N17        Mn583   2.201   1_554  S
N18          C20   1.354       .  A
Mn19        N849   2.196       .  S
Mn19        N289   2.202       .  S
Mn19        N581   2.201   1_556  S
Mn19      Cl1735   2.544       .  S
C20         C177   1.478       .  S
C21         C270   1.476       .  S
N22          N23   1.320       .  A
N22          N28   1.315       .  A
N22         Mn30   2.199       .  S
N23          C31   1.353       .  A
N24          N26   1.315       .  A
N24          N25   1.320       .  A
N24        Mn888   2.202       .  S
N25          C32   1.353       .  A
N26          N27   1.319       .  A
N26        Mn594   2.199       .  S
N27          C32   1.353       .  A
N28          N29   1.320       .  A
N28        Mn324   2.200       .  S
N29          C31   1.353       .  A
Mn30       N1693   2.202   1_445  S
Mn30       N1133   2.200   1_455  S
Mn30        N590   2.199   1_545  S
Mn30       Cl325   2.550       .  S
C31         C126   1.476       .  S
C32         C246   1.476       .  S
N33          N34   1.321       .  A
N33          N39   1.315       .  A
N33        Mn605   2.201       .  S
N34          C44   1.354       .  A
N35          N36   1.320       .  A
N35          N37   1.315       .  A
N35         Mn42   2.203       .  S
N36          C45   1.354       .  A
N37          N38   1.321       .  A
N37         Mn41   2.207       .  S
N38          C45   1.355       .  A
N39          N40   1.319       .  A
N39        Mn606   2.199       .  S
N40          C44   1.353       .  A
Mn41       N1139   2.202   1_455  S
Mn41       N1707   2.204   1_445  S
Mn41        N597   2.201   1_545  S
Mn41        Cl43   2.548   1_554  S
Mn42        N870   2.202   1_544  S
Mn42        N310   2.200   1_554  S
Mn42        N603   2.199   1_545  S
Mn42        Cl43   2.543   1_554  S
Cl43      Mn1711   2.544   1_455  S
Cl43       Mn312   2.550       .  S
C44         C153   1.477       .  S
C45         C102   1.481       .  S
N46          N47   1.320       .  A
N46          N52   1.315       .  A
N46         Mn75   2.204       .  S
N47          C54   1.354       .  A
N48          N50   1.315       .  A
N48          N49   1.321       .  A
N48         Mn64   2.201       .  S
N49          C55   1.354       .  A
N50          N51   1.320       .  A
N50         Mn75   2.202       .  S
N51          C55   1.353       .  A
N52          N53   1.320       .  A
N52         Mn64   2.198       .  S
N53          C54   1.353       .  A
C54         C273   1.476       .  S
C55         C174   1.478       .  S
N56          N62   1.315       .  A
N56          N57   1.320       .  A
N56         Mn86   2.200       .  S
N57          C65   1.354       .  A
N58          N59   1.320       .  A
N58          N60   1.316       .  A
N58         Mn64   2.202       .  S
N59          C66   1.353       .  A
N60          N61   1.321       .  A
N60         Mn86   2.202       .  S
N61          C66   1.354       .  A
N62          N63   1.319       .  A
N62         Mn64   2.196       .  S
N63          C65   1.352       .  A
Mn64        Cl88   2.544       .  S
C65         C225   1.476       .  S
C66         C198   1.477       .  S
N67          N68   1.321       .  A
N67          N73   1.315       .  A
N67         Mn75   2.207       .  S
N68          C76   1.355       .  A
N69          N71   1.315       .  A
N69          N70   1.319       .  A
N69         Mn87   2.199       .  S
N70          C77   1.353       .  A
N71          N72   1.321       .  A
N71         Mn75   2.201       .  S
N72          C77   1.354       .  A
N73          N74   1.320       .  A
N73         Mn87   2.203       .  S
N74          C76   1.354       .  A
Mn75        Cl88   2.548       .  S
C76         C105   1.481       .  S
C77         C150   1.477       .  S
N78          N79   1.319       .  A
N78          N84   1.315       .  A
N78         Mn86   2.199       .  S
N79          C89   1.353       .  A
N80          N81   1.320       .  A
N80          N82   1.315       .  A
N80         Mn87   2.200       .  S
N81          C90   1.353       .  A
N82          N83   1.319       .  A
N82         Mn86   2.199       .  S
N83          C90   1.353       .  A
N84          N85   1.320       .  A
N84         Mn87   2.201       .  S
N85          C89   1.353       .  A
Mn86        Cl88   2.550       .  S
Mn87        Cl88   2.543       .  S
C89         C249   1.476       .  S
C90         C129   1.476       .  S
C91          C92   1.399       .  A
C91          C96   1.404       .  A
C91         H107   1.084       .  S
C92          C93   1.404       .  A
C92         H108   1.084       .  S
C93         C103   1.404       .  A
C93          C94   1.412       .  A
C94         C100   1.411       .  A
C94          C95   1.413       .  A
C95          C97   1.412       .  A
C95          C96   1.411       .  A
C96         C104   1.403       .  A
C97         C106   1.404       .  A
C97          C98   1.404       .  A
C98          C99   1.399       .  A
C98         H109   1.084       .  S
C99         C100   1.404       .  A
C99         H110   1.084       .  S
C100        C101   1.403       .  A
C101        C102   1.407       .  A
C101        H111   1.084       .  S
C102        C103   1.407       .  A
C103        H112   1.084       .  S
C104        C105   1.407       .  A
C104        H113   1.084       .  S
C105        C106   1.407       .  A
C106        H114   1.084       .  S
C115        C116   1.398       .  A
C115        C120   1.403       .  A
C115        H131   1.084       .  S
C116        C117   1.403       .  A
C116        H132   1.084       .  S
C117        C127   1.402       .  A
C117        C118   1.411       .  A
C118        C124   1.412       .  A
C118        C119   1.411       .  A
C119        C121   1.411       .  A
C119        C120   1.412       .  A
C120        C128   1.402       .  A
C121        C130   1.402       .  A
C121        C122   1.403       .  A
C122        C123   1.398       .  A
C122        H133   1.084       .  S
C123        C124   1.403       .  A
C123        H134   1.084       .  S
C124        C125   1.402       .  A
C125        C126   1.406       .  A
C125        H135   1.084       .  S
C126        C127   1.406       .  A
C127        H136   1.084       .  S
C128        C129   1.406       .  A
C128        H137   1.084       .  S
C129        C130   1.406       .  A
C130        H138   1.084       .  S
C139        C140   1.399       .  A
C139        C144   1.403       .  A
C139        H155   1.084       .  S
C140        C141   1.403       .  A
C140        H156   1.084       .  S
C141        C151   1.402       .  A
C141        C142   1.411       .  A
C142        C148   1.412       .  A
C142        C143   1.411       .  A
C143        C145   1.411       .  A
C143        C144   1.412       .  A
C144        C152   1.403       .  A
C145        C154   1.402       .  A
C145        C146   1.403       .  A
C146        C147   1.399       .  A
C146        H157   1.084       .  S
C147        C148   1.403       .  A
C147        H158   1.084       .  S
C148        C149   1.403       .  A
C149        C150   1.406       .  A
C149        H159   1.084       .  S
C150        C151   1.406       .  A
C151        H160   1.084       .  S
C152        C153   1.406       .  A
C152        H161   1.084       .  S
C153        C154   1.406       .  A
C154        H162   1.084       .  S
C163        C164   1.399       .  A
C163        C168   1.403       .  A
C163        H179   1.084       .  S
C164        C165   1.403       .  A
C164        H180   1.084       .  S
C165        C175   1.402       .  A
C165        C166   1.411       .  A
C166        C172   1.412       .  A
C166        C167   1.411       .  A
C167        C169   1.411       .  A
C167        C168   1.412       .  A
C168        C176   1.403       .  A
C169        C178   1.402       .  A
C169        C170   1.403       .  A
C170        C171   1.399       .  A
C170        H181   1.084       .  S
C171        C172   1.403       .  A
C171        H182   1.084       .  S
C172        C173   1.403       .  A
C173        C174   1.406       .  A
C173        H183   1.084       .  S
C174        C175   1.406       .  A
C175        H184   1.084       .  S
C176        C177   1.406       .  A
C176        H185   1.084       .  S
C177        C178   1.406       .  A
C178        H186   1.084       .  S
C187        C188   1.399       .  A
C187        C192   1.403       .  A
C187        H203   1.084       .  S
C188        C189   1.403       .  A
C188        H204   1.084       .  S
C189        C199   1.402       .  A
C189        C190   1.411       .  A
C190        C196   1.412       .  A
C190        C191   1.411       .  A
C191        C193   1.411       .  A
C191        C192   1.412       .  A
C192        C200   1.403       .  A
C193        C202   1.402       .  A
C193        C194   1.403       .  A
C194        C195   1.399       .  A
C194        H205   1.084       .  S
C195        C196   1.403       .  A
C195        H206   1.084       .  S
C196        C197   1.403       .  A
C197        C198   1.406       .  A
C197        H207   1.084       .  S
C198        C199   1.406       .  A
C199        H208   1.084       .  S
C200        C201   1.406       .  A
C200        H209   1.084       .  S
C201        C202   1.406       .  A
C202        H210   1.084       .  S
C211        C212   1.398       .  A
C211        C216   1.403       .  A
C211        H227   1.084       .  S
C212        C213   1.403       .  A
C212        H228   1.084       .  S
C213        C223   1.401       .  A
C213        C214   1.411       .  A
C214        C220   1.412       .  A
C214        C215   1.410       .  A
C215        C217   1.411       .  A
C215        C216   1.412       .  A
C216        C224   1.402       .  A
C217        C226   1.401       .  A
C217        C218   1.403       .  A
C218        C219   1.398       .  A
C218        H229   1.084       .  S
C219        C220   1.403       .  A
C219        H230   1.084       .  S
C220        C221   1.402       .  A
C221        C222   1.405       .  A
C221        H231   1.084       .  S
C222        C223   1.406       .  A
C223        H232   1.084       .  S
C224        C225   1.405       .  A
C224        H233   1.084       .  S
C225        C226   1.406       .  A
C226        H234   1.084       .  S
C235        C236   1.398       .  A
C235        C240   1.403       .  A
C235        H251   1.084       .  S
C236        C237   1.403       .  A
C236        H252   1.084       .  S
C237        C247   1.402       .  A
C237        C238   1.412       .  A
C238        C244   1.411       .  A
C238        C239   1.411       .  A
C239        C241   1.412       .  A
C239        C240   1.411       .  A
C240        C248   1.401       .  A
C241        C250   1.402       .  A
C241        C242   1.403       .  A
C242        C243   1.398       .  A
C242        H253   1.084       .  S
C243        C244   1.403       .  A
C243        H254   1.084       .  S
C244        C245   1.401       .  A
C245        C246   1.406       .  A
C245        H255   1.084       .  S
C246        C247   1.405       .  A
C247        H256   1.084       .  S
C248        C249   1.406       .  A
C248        H257   1.084       .  S
C249        C250   1.405       .  A
C250        H258   1.084       .  S
C259        C260   1.399       .  A
C259        C264   1.404       .  A
C259        H275   1.084       .  S
C260        C261   1.403       .  A
C260        H276   1.084       .  S
C261        C271   1.403       .  A
C261        C262   1.412       .  A
C262        C268   1.411       .  A
C262        C263   1.411       .  A
C263        C265   1.412       .  A
C263        C264   1.411       .  A
C264        C272   1.402       .  A
C265        C274   1.403       .  A
C265        C266   1.403       .  A
C266        C267   1.399       .  A
C266        H277   1.084       .  S
C267        C268   1.404       .  A
C267        H278   1.084       .  S
C268        C269   1.402       .  A
C269        C270   1.406       .  A
C269        H279   1.084       .  S
C270        C271   1.405       .  A
C271        H280   1.084       .  S
C272        C273   1.406       .  A
C272        H281   1.084       .  S
C273        C274   1.405       .  A
C274        H282   1.084       .  S
N283        N284   1.321       .  A
N283        N289   1.316       .  A
N283      Mn2004   2.202       .  S
N284        C291   1.354       .  A
N285        N287   1.315       .  A
N285        N286   1.319       .  A
N285       Mn583   2.196       .  S
N286        C292   1.352       .  A
N287        N288   1.320       .  A
N287      Mn1440   2.200       .  S
N288        C292   1.354       .  A
N289        N290   1.320       .  A
N290        C291   1.353       .  A
C291        C483   1.477       .  S
C292        C504   1.476       .  S
N293        N299   1.315       .  A
N293        N294   1.320       .  A
N293      Mn1451   2.202       .  S
N294        C302   1.353       .  A
N295        N296   1.320       .  A
N295        N297   1.315       .  A
N295       Mn301   2.198       .  S
N296        C303   1.353       .  A
N297        N298   1.320       .  A
N297      Mn2015   2.204       .  S
N298        C303   1.354       .  A
N299        N300   1.321       .  A
N299       Mn865   2.201       .  S
N300        C302   1.354       .  A
Mn301       N567   2.196       .  S
Mn301       N863   2.201       .  S
Mn301     Cl2017   2.544       .  S
C302        C459   1.478       .  S
C303        C552   1.476       .  S
N304        N305   1.320       .  A
N304        N310   1.315       .  A
N304       Mn312   2.199       .  S
N305        C313   1.353       .  A
N306        N308   1.315       .  A
N306        N307   1.320       .  A
N306       Mn606   2.202   1_556  S
N307        C314   1.353       .  A
N308        N309   1.319       .  A
N308       Mn876   2.199       .  S
N309        C314   1.353       .  A
N310        N311   1.320       .  A
N311        C313   1.353       .  A
Mn312      N1975   2.202   1_445  S
Mn312      N1415   2.200   1_455  S
Mn312       N872   2.199   1_545  S
C313        C408   1.476       .  S
C314        C528   1.476       .  S
N315        N316   1.321       .  A
N315        N321   1.315       .  A
N315       Mn887   2.201       .  S
N316        C326   1.354       .  A
N317        N318   1.320       .  A
N317        N319   1.315       .  A
N317       Mn324   2.203       .  S
N318        C327   1.354       .  A
N319        N320   1.321       .  A
N319       Mn323   2.207       .  S
N320        C327   1.355       .  A
N321        N322   1.319       .  A
N321       Mn888   2.199       .  S
N322        C326   1.353       .  A
Mn323      N1421   2.202   1_455  S
Mn323      N1989   2.204   1_445  S
Mn323       N879   2.201   1_545  S
Mn323      Cl325   2.548       .  S
Mn324       N588   2.202   1_545  S
Mn324       N885   2.199   1_545  S
Mn324      Cl325   2.543       .  S
Cl325     Mn1993   2.544   1_455  S
C326        C435   1.477       .  S
C327        C384   1.481       .  S
N328        N329   1.320       .  A
N328        N334   1.315       .  A
N328       Mn357   2.204       .  S
N329        C336   1.354       .  A
N330        N332   1.315       .  A
N330        N331   1.321       .  A
N330       Mn346   2.201       .  S
N331        C337   1.354       .  A
N332        N333   1.320       .  A
N332       Mn357   2.202       .  S
N333        C337   1.353       .  A
N334        N335   1.320       .  A
N334       Mn346   2.198       .  S
N335        C336   1.353       .  A
C336        C555   1.476       .  S
C337        C456   1.478       .  S
N338        N344   1.315       .  A
N338        N339   1.320       .  A
N338       Mn368   2.200       .  S
N339        C347   1.354       .  A
N340        N341   1.320       .  A
N340        N342   1.316       .  A
N340       Mn346   2.202       .  S
N341        C348   1.353       .  A
N342        N343   1.321       .  A
N342       Mn368   2.202       .  S
N343        C348   1.354       .  A
N344        N345   1.319       .  A
N344       Mn346   2.196       .  S
N345        C347   1.352       .  A
Mn346      Cl370   2.544       .  S
C347        C507   1.476       .  S
C348        C480   1.477       .  S
N349        N350   1.321       .  A
N349        N355   1.315       .  A
N349       Mn357   2.207       .  S
N350        C358   1.355       .  A
N351        N353   1.315       .  A
N351        N352   1.319       .  A
N351       Mn369   2.199       .  S
N352        C359   1.353       .  A
N353        N354   1.321       .  A
N353       Mn357   2.201       .  S
N354        C359   1.354       .  A
N355        N356   1.320       .  A
N355       Mn369   2.203       .  S
N356        C358   1.354       .  A
Mn357      Cl370   2.548       .  S
C358        C387   1.481       .  S
C359        C432   1.477       .  S
N360        N361   1.319       .  A
N360        N366   1.315       .  A
N360       Mn368   2.199       .  S
N361        C371   1.353       .  A
N362        N363   1.320       .  A
N362        N364   1.315       .  A
N362       Mn369   2.200       .  S
N363        C372   1.353       .  A
N364        N365   1.319       .  A
N364       Mn368   2.199       .  S
N365        C372   1.353       .  A
N366        N367   1.320       .  A
N366       Mn369   2.201       .  S
N367        C371   1.353       .  A
Mn368      Cl370   2.550       .  S
Mn369      Cl370   2.543       .  S
C371        C531   1.476       .  S
C372        C411   1.476       .  S
C373        C374   1.399       .  A
C373        C378   1.404       .  A
C373        H389   1.084       .  S
C374        C375   1.404       .  A
C374        H390   1.084       .  S
C375        C385   1.404       .  A
C375        C376   1.412       .  A
C376        C382   1.411       .  A
C376        C377   1.413       .  A
C377        C379   1.412       .  A
C377        C378   1.411       .  A
C378        C386   1.403       .  A
C379        C388   1.404       .  A
C379        C380   1.404       .  A
C380        C381   1.399       .  A
C380        H391   1.084       .  S
C381        C382   1.404       .  A
C381        H392   1.084       .  S
C382        C383   1.403       .  A
C383        C384   1.407       .  A
C383        H393   1.084       .  S
C384        C385   1.407       .  A
C385        H394   1.084       .  S
C386        C387   1.407       .  A
C386        H395   1.084       .  S
C387        C388   1.407       .  A
C388        H396   1.084       .  S
C397        C398   1.398       .  A
C397        C402   1.403       .  A
C397        H413   1.084       .  S
C398        C399   1.403       .  A
C398        H414   1.084       .  S
C399        C409   1.402       .  A
C399        C400   1.411       .  A
C400        C406   1.412       .  A
C400        C401   1.411       .  A
C401        C403   1.411       .  A
C401        C402   1.412       .  A
C402        C410   1.402       .  A
C403        C412   1.402       .  A
C403        C404   1.403       .  A
C404        C405   1.398       .  A
C404        H415   1.084       .  S
C405        C406   1.403       .  A
C405        H416   1.084       .  S
C406        C407   1.402       .  A
C407        C408   1.406       .  A
C407        H417   1.084       .  S
C408        C409   1.406       .  A
C409        H418   1.084       .  S
C410        C411   1.406       .  A
C410        H419   1.084       .  S
C411        C412   1.406       .  A
C412        H420   1.084       .  S
C421        C422   1.399       .  A
C421        C426   1.403       .  A
C421        H437   1.084       .  S
C422        C423   1.403       .  A
C422        H438   1.084       .  S
C423        C433   1.402       .  A
C423        C424   1.411       .  A
C424        C430   1.412       .  A
C424        C425   1.411       .  A
C425        C427   1.411       .  A
C425        C426   1.412       .  A
C426        C434   1.403       .  A
C427        C436   1.402       .  A
C427        C428   1.403       .  A
C428        C429   1.399       .  A
C428        H439   1.084       .  S
C429        C430   1.403       .  A
C429        H440   1.084       .  S
C430        C431   1.403       .  A
C431        C432   1.406       .  A
C431        H441   1.084       .  S
C432        C433   1.406       .  A
C433        H442   1.084       .  S
C434        C435   1.406       .  A
C434        H443   1.084       .  S
C435        C436   1.406       .  A
C436        H444   1.084       .  S
C445        C446   1.399       .  A
C445        C450   1.403       .  A
C445        H461   1.084       .  S
C446        C447   1.403       .  A
C446        H462   1.084       .  S
C447        C457   1.402       .  A
C447        C448   1.411       .  A
C448        C454   1.412       .  A
C448        C449   1.411       .  A
C449        C451   1.411       .  A
C449        C450   1.412       .  A
C450        C458   1.403       .  A
C451        C460   1.402       .  A
C451        C452   1.403       .  A
C452        C453   1.399       .  A
C452        H463   1.084       .  S
C453        C454   1.403       .  A
C453        H464   1.084       .  S
C454        C455   1.403       .  A
C455        C456   1.406       .  A
C455        H465   1.084       .  S
C456        C457   1.406       .  A
C457        H466   1.084       .  S
C458        C459   1.406       .  A
C458        H467   1.084       .  S
C459        C460   1.406       .  A
C460        H468   1.084       .  S
C469        C470   1.399       .  A
C469        C474   1.403       .  A
C469        H485   1.084       .  S
C470        C471   1.403       .  A
C470        H486   1.084       .  S
C471        C481   1.402       .  A
C471        C472   1.411       .  A
C472        C478   1.412       .  A
C472        C473   1.411       .  A
C473        C475   1.411       .  A
C473        C474   1.412       .  A
C474        C482   1.403       .  A
C475        C484   1.402       .  A
C475        C476   1.403       .  A
C476        C477   1.399       .  A
C476        H487   1.084       .  S
C477        C478   1.403       .  A
C477        H488   1.084       .  S
C478        C479   1.403       .  A
C479        C480   1.406       .  A
C479        H489   1.084       .  S
C480        C481   1.406       .  A
C481        H490   1.084       .  S
C482        C483   1.406       .  A
C482        H491   1.084       .  S
C483        C484   1.406       .  A
C484        H492   1.084       .  S
C493        C494   1.398       .  A
C493        C498   1.403       .  A
C493        H509   1.084       .  S
C494        C495   1.403       .  A
C494        H510   1.084       .  S
C495        C505   1.401       .  A
C495        C496   1.411       .  A
C496        C502   1.412       .  A
C496        C497   1.410       .  A
C497        C499   1.411       .  A
C497        C498   1.412       .  A
C498        C506   1.402       .  A
C499        C508   1.401       .  A
C499        C500   1.403       .  A
C500        C501   1.398       .  A
C500        H511   1.084       .  S
C501        C502   1.403       .  A
C501        H512   1.084       .  S
C502        C503   1.402       .  A
C503        C504   1.405       .  A
C503        H513   1.084       .  S
C504        C505   1.406       .  A
C505        H514   1.084       .  S
C506        C507   1.405       .  A
C506        H515   1.084       .  S
C507        C508   1.406       .  A
C508        H516   1.084       .  S
C517        C518   1.398       .  A
C517        C522   1.403       .  A
C517        H533   1.084       .  S
C518        C519   1.403       .  A
C518        H534   1.084       .  S
C519        C529   1.402       .  A
C519        C520   1.412       .  A
C520        C526   1.411       .  A
C520        C521   1.411       .  A
C521        C523   1.412       .  A
C521        C522   1.411       .  A
C522        C530   1.401       .  A
C523        C532   1.402       .  A
C523        C524   1.403       .  A
C524        C525   1.398       .  A
C524        H535   1.084       .  S
C525        C526   1.403       .  A
C525        H536   1.084       .  S
C526        C527   1.401       .  A
C527        C528   1.406       .  A
C527        H537   1.084       .  S
C528        C529   1.405       .  A
C529        H538   1.084       .  S
C530        C531   1.406       .  A
C530        H539   1.084       .  S
C531        C532   1.405       .  A
C532        H540   1.084       .  S
C541        C542   1.399       .  A
C541        C546   1.404       .  A
C541        H557   1.084       .  S
C542        C543   1.403       .  A
C542        H558   1.084       .  S
C543        C553   1.403       .  A
C543        C544   1.412       .  A
C544        C550   1.411       .  A
C544        C545   1.411       .  A
C545        C547   1.412       .  A
C545        C546   1.411       .  A
C546        C554   1.402       .  A
C547        C556   1.403       .  A
C547        C548   1.403       .  A
C548        C549   1.399       .  A
C548        H559   1.084       .  S
C549        C550   1.404       .  A
C549        H560   1.084       .  S
C550        C551   1.402       .  A
C551        C552   1.406       .  A
C551        H561   1.084       .  S
C552        C553   1.405       .  A
C553        H562   1.084       .  S
C554        C555   1.406       .  A
C554        H563   1.084       .  S
C555        C556   1.405       .  A
C556        H564   1.084       .  S
N565        N566   1.321       .  A
N565        N571   1.316       .  A
N565      Mn1158   2.202   1_565  S
N566        C573   1.354       .  A
N567        N569   1.315       .  A
N567        N568   1.319       .  A
N568        C574   1.352       .  A
N569        N570   1.320       .  A
N569      Mn1722   2.200       .  S
N570        C574   1.354       .  A
N571        N572   1.320       .  A
N571       Mn865   2.202   1_565  S
N572        C573   1.353       .  A
C573        C765   1.477       .  S
C574        C786   1.476       .  S
N575        N581   1.315       .  A
N575        N576   1.320       .  A
N575      Mn1733   2.202       .  S
N576        C584   1.353       .  A
N577        N578   1.320       .  A
N577        N579   1.315       .  A
N577       Mn583   2.198   1_564  S
N578        C585   1.353       .  A
N579        N580   1.320       .  A
N579      Mn1169   2.204   1_565  S
N580        C585   1.354       .  A
N581        N582   1.321       .  A
N582        C584   1.354       .  A
Mn583       N853   2.202   1_545  S
Mn583     Cl1171   2.544       .  S
C584        C741   1.478       .  S
C585        C834   1.476       .  S
N586        N587   1.320       .  A
N586        N592   1.315       .  A
N586       Mn594   2.199       .  S
N587        C595   1.353       .  A
N588        N590   1.315       .  A
N588        N589   1.320       .  A
N589        C596   1.353       .  A
N590        N591   1.319       .  A
N591        C596   1.353       .  A
N592        N593   1.320       .  A
N592       Mn888   2.200       .  S
N593        C595   1.353       .  A
Mn594      N1129   2.202   1_455  S
Mn594      N1697   2.200   1_455  S
Mn594      Cl889   2.550       .  S
C595        C690   1.476       .  S
C596        C810   1.476       .  S
N597        N598   1.321       .  A
N597        N603   1.315       .  A
N598        C608   1.354       .  A
N599        N600   1.320       .  A
N599        N601   1.315       .  A
N599       Mn606   2.203       .  S
N600        C609   1.354       .  A
N601        N602   1.321       .  A
N601       Mn605   2.207       .  S
N602        C609   1.355       .  A
N603        N604   1.319       .  A
N604        C608   1.353       .  A
Mn605      N1703   2.202   1_455  S
Mn605      N1143   2.204   1_455  S
Mn605      Cl607   2.548   1_554  S
Mn606       N874   2.200   1_554  S
Mn606      Cl607   2.543   1_554  S
Cl607     Mn1147   2.544   1_455  S
Cl607      Mn876   2.550       .  S
C608        C717   1.477       .  S
C609        C666   1.481       .  S
N610        N611   1.320       .  A
N610        N616   1.315       .  A
N610       Mn639   2.204       .  S
N611        C618   1.354       .  A
N612        N614   1.315       .  A
N612        N613   1.321       .  A
N612       Mn628   2.201       .  S
N613        C619   1.354       .  A
N614        N615   1.320       .  A
N614       Mn639   2.202       .  S
N615        C619   1.353       .  A
N616        N617   1.320       .  A
N616       Mn628   2.198       .  S
N617        C618   1.353       .  A
C618        C837   1.476       .  S
C619        C738   1.478       .  S
N620        N626   1.315       .  A
N620        N621   1.320       .  A
N620       Mn650   2.200       .  S
N621        C629   1.354       .  A
N622        N623   1.320       .  A
N622        N624   1.316       .  A
N622       Mn628   2.202       .  S
N623        C630   1.353       .  A
N624        N625   1.321       .  A
N624       Mn650   2.202       .  S
N625        C630   1.354       .  A
N626        N627   1.319       .  A
N626       Mn628   2.196       .  S
N627        C629   1.352       .  A
Mn628      Cl652   2.544       .  S
C629        C789   1.476       .  S
C630        C762   1.477       .  S
N631        N632   1.321       .  A
N631        N637   1.315       .  A
N631       Mn639   2.207       .  S
N632        C640   1.355       .  A
N633        N635   1.315       .  A
N633        N634   1.319       .  A
N633       Mn651   2.199       .  S
N634        C641   1.353       .  A
N635        N636   1.321       .  A
N635       Mn639   2.201       .  S
N636        C641   1.354       .  A
N637        N638   1.320       .  A
N637       Mn651   2.203       .  S
N638        C640   1.354       .  A
Mn639      Cl652   2.548       .  S
C640        C669   1.481       .  S
C641        C714   1.477       .  S
N642        N643   1.319       .  A
N642        N648   1.315       .  A
N642       Mn650   2.199       .  S
N643        C653   1.353       .  A
N644        N645   1.320       .  A
N644        N646   1.315       .  A
N644       Mn651   2.200       .  S
N645        C654   1.353       .  A
N646        N647   1.319       .  A
N646       Mn650   2.199       .  S
N647        C654   1.353       .  A
N648        N649   1.320       .  A
N648       Mn651   2.201       .  S
N649        C653   1.353       .  A
Mn650      Cl652   2.550       .  S
Mn651      Cl652   2.543       .  S
C653        C813   1.476       .  S
C654        C693   1.476       .  S
C655        C656   1.399       .  A
C655        C660   1.404       .  A
C655        H671   1.084       .  S
C656        C657   1.404       .  A
C656        H672   1.084       .  S
C657        C667   1.404       .  A
C657        C658   1.412       .  A
C658        C664   1.411       .  A
C658        C659   1.413       .  A
C659        C661   1.412       .  A
C659        C660   1.411       .  A
C660        C668   1.403       .  A
C661        C670   1.404       .  A
C661        C662   1.404       .  A
C662        C663   1.399       .  A
C662        H673   1.084       .  S
C663        C664   1.404       .  A
C663        H674   1.084       .  S
C664        C665   1.403       .  A
C665        C666   1.407       .  A
C665        H675   1.084       .  S
C666        C667   1.407       .  A
C667        H676   1.084       .  S
C668        C669   1.407       .  A
C668        H677   1.084       .  S
C669        C670   1.407       .  A
C670        H678   1.084       .  S
C679        C680   1.398       .  A
C679        C684   1.403       .  A
C679        H695   1.084       .  S
C680        C681   1.403       .  A
C680        H696   1.084       .  S
C681        C691   1.402       .  A
C681        C682   1.411       .  A
C682        C688   1.412       .  A
C682        C683   1.411       .  A
C683        C685   1.411       .  A
C683        C684   1.412       .  A
C684        C692   1.402       .  A
C685        C694   1.402       .  A
C685        C686   1.403       .  A
C686        C687   1.398       .  A
C686        H697   1.084       .  S
C687        C688   1.403       .  A
C687        H698   1.084       .  S
C688        C689   1.402       .  A
C689        C690   1.406       .  A
C689        H699   1.084       .  S
C690        C691   1.406       .  A
C691        H700   1.084       .  S
C692        C693   1.406       .  A
C692        H701   1.084       .  S
C693        C694   1.406       .  A
C694        H702   1.084       .  S
C703        C704   1.399       .  A
C703        C708   1.403       .  A
C703        H719   1.084       .  S
C704        C705   1.403       .  A
C704        H720   1.084       .  S
C705        C715   1.402       .  A
C705        C706   1.411       .  A
C706        C712   1.412       .  A
C706        C707   1.411       .  A
C707        C709   1.411       .  A
C707        C708   1.412       .  A
C708        C716   1.403       .  A
C709        C718   1.402       .  A
C709        C710   1.403       .  A
C710        C711   1.399       .  A
C710        H721   1.084       .  S
C711        C712   1.403       .  A
C711        H722   1.084       .  S
C712        C713   1.403       .  A
C713        C714   1.406       .  A
C713        H723   1.084       .  S
C714        C715   1.406       .  A
C715        H724   1.084       .  S
C716        C717   1.406       .  A
C716        H725   1.084       .  S
C717        C718   1.406       .  A
C718        H726   1.084       .  S
C727        C728   1.399       .  A
C727        C732   1.403       .  A
C727        H743   1.084       .  S
C728        C729   1.403       .  A
C728        H744   1.084       .  S
C729        C739   1.402       .  A
C729        C730   1.411       .  A
C730        C736   1.412       .  A
C730        C731   1.411       .  A
C731        C733   1.411       .  A
C731        C732   1.412       .  A
C732        C740   1.403       .  A
C733        C742   1.402       .  A
C733        C734   1.403       .  A
C734        C735   1.399       .  A
C734        H745   1.084       .  S
C735        C736   1.403       .  A
C735        H746   1.084       .  S
C736        C737   1.403       .  A
C737        C738   1.406       .  A
C737        H747   1.084       .  S
C738        C739   1.406       .  A
C739        H748   1.084       .  S
C740        C741   1.406       .  A
C740        H749   1.084       .  S
C741        C742   1.406       .  A
C742        H750   1.084       .  S
C751        C752   1.399       .  A
C751        C756   1.403       .  A
C751        H767   1.084       .  S
C752        C753   1.403       .  A
C752        H768   1.084       .  S
C753        C763   1.402       .  A
C753        C754   1.411       .  A
C754        C760   1.412       .  A
C754        C755   1.411       .  A
C755        C757   1.411       .  A
C755        C756   1.412       .  A
C756        C764   1.403       .  A
C757        C766   1.402       .  A
C757        C758   1.403       .  A
C758        C759   1.399       .  A
C758        H769   1.084       .  S
C759        C760   1.403       .  A
C759        H770   1.084       .  S
C760        C761   1.403       .  A
C761        C762   1.406       .  A
C761        H771   1.084       .  S
C762        C763   1.406       .  A
C763        H772   1.084       .  S
C764        C765   1.406       .  A
C764        H773   1.084       .  S
C765        C766   1.406       .  A
C766        H774   1.084       .  S
C775        C776   1.398       .  A
C775        C780   1.403       .  A
C775        H791   1.084       .  S
C776        C777   1.403       .  A
C776        H792   1.084       .  S
C777        C787   1.401       .  A
C777        C778   1.411       .  A
C778        C784   1.412       .  A
C778        C779   1.410       .  A
C779        C781   1.411       .  A
C779        C780   1.412       .  A
C780        C788   1.402       .  A
C781        C790   1.401       .  A
C781        C782   1.403       .  A
C782        C783   1.398       .  A
C782        H793   1.084       .  S
C783        C784   1.403       .  A
C783        H794   1.084       .  S
C784        C785   1.402       .  A
C785        C786   1.405       .  A
C785        H795   1.084       .  S
C786        C787   1.406       .  A
C787        H796   1.084       .  S
C788        C789   1.405       .  A
C788        H797   1.084       .  S
C789        C790   1.406       .  A
C790        H798   1.084       .  S
C799        C800   1.398       .  A
C799        C804   1.403       .  A
C799        H815   1.084       .  S
C800        C801   1.403       .  A
C800        H816   1.084       .  S
C801        C811   1.402       .  A
C801        C802   1.412       .  A
C802        C808   1.411       .  A
C802        C803   1.411       .  A
C803        C805   1.412       .  A
C803        C804   1.411       .  A
C804        C812   1.401       .  A
C805        C814   1.402       .  A
C805        C806   1.403       .  A
C806        C807   1.398       .  A
C806        H817   1.084       .  S
C807        C808   1.403       .  A
C807        H818   1.084       .  S
C808        C809   1.401       .  A
C809        C810   1.406       .  A
C809        H819   1.084       .  S
C810        C811   1.405       .  A
C811        H820   1.084       .  S
C812        C813   1.406       .  A
C812        H821   1.084       .  S
C813        C814   1.405       .  A
C814        H822   1.084       .  S
C823        C824   1.399       .  A
C823        C828   1.404       .  A
C823        H839   1.084       .  S
C824        C825   1.403       .  A
C824        H840   1.084       .  S
C825        C835   1.403       .  A
C825        C826   1.412       .  A
C826        C832   1.411       .  A
C826        C827   1.411       .  A
C827        C829   1.412       .  A
C827        C828   1.411       .  A
C828        C836   1.402       .  A
C829        C838   1.403       .  A
C829        C830   1.403       .  A
C830        C831   1.399       .  A
C830        H841   1.084       .  S
C831        C832   1.404       .  A
C831        H842   1.084       .  S
C832        C833   1.402       .  A
C833        C834   1.406       .  A
C833        H843   1.084       .  S
C834        C835   1.405       .  A
C835        H844   1.084       .  S
C836        C837   1.406       .  A
C836        H845   1.084       .  S
C837        C838   1.405       .  A
C838        H846   1.084       .  S
N847        N848   1.321       .  A
N847        N853   1.316       .  A
N847      Mn1440   2.202   1_565  S
N848        C855   1.354       .  A
N849        N851   1.315       .  A
N849        N850   1.319       .  A
N850        C856   1.352       .  A
N851        N852   1.320       .  A
N851      Mn2004   2.200       .  S
N852        C856   1.354       .  A
N853        N854   1.320       .  A
N854        C855   1.353       .  A
C855       C1047   1.477       .  S
C856       C1068   1.476       .  S
N857        N863   1.315       .  A
N857        N858   1.320       .  A
N857      Mn2015   2.202       .  S
N858        C866   1.353       .  A
N859        N860   1.320       .  A
N859        N861   1.315       .  A
N859       Mn865   2.198   1_565  S
N860        C867   1.353       .  A
N861        N862   1.320       .  A
N861      Mn1451   2.204   1_565  S
N862        C867   1.354       .  A
N863        N864   1.321       .  A
N864        C866   1.354       .  A
Mn865     Cl1453   2.544       .  S
C866       C1023   1.478       .  S
C867       C1116   1.476       .  S
N868        N869   1.320       .  A
N868        N874   1.315       .  A
N868       Mn876   2.199       .  S
N869        C877   1.353       .  A
N870        N872   1.315       .  A
N870        N871   1.320       .  A
N871        C878   1.353       .  A
N872        N873   1.319       .  A
N873        C878   1.353       .  A
N874        N875   1.320       .  A
N875        C877   1.353       .  A
Mn876      N1411   2.202   1_455  S
Mn876      N1979   2.200   1_455  S
C877        C972   1.476       .  S
C878       C1092   1.476       .  S
N879        N880   1.321       .  A
N879        N885   1.315       .  A
N880        C890   1.354       .  A
N881        N882   1.320       .  A
N881        N883   1.315       .  A
N881       Mn888   2.203       .  S
N882        C891   1.354       .  A
N883        N884   1.321       .  A
N883       Mn887   2.207       .  S
N884        C891   1.355       .  A
N885        N886   1.319       .  A
N886        C890   1.353       .  A
Mn887      N1985   2.202   1_455  S
Mn887      N1425   2.204   1_455  S
Mn887      Cl889   2.548       .  S
Mn888      Cl889   2.543       .  S
Cl889     Mn1429   2.544   1_455  S
C890        C999   1.477       .  S
C891        C948   1.481       .  S
N892        N893   1.320       .  A
N892        N898   1.315       .  A
N892       Mn921   2.204       .  S
N893        C900   1.354       .  A
N894        N896   1.315       .  A
N894        N895   1.321       .  A
N894       Mn910   2.201       .  S
N895        C901   1.354       .  A
N896        N897   1.320       .  A
N896       Mn921   2.202       .  S
N897        C901   1.353       .  A
N898        N899   1.320       .  A
N898       Mn910   2.198       .  S
N899        C900   1.353       .  A
C900       C1119   1.476       .  S
C901       C1020   1.478       .  S
N902        N908   1.315       .  A
N902        N903   1.320       .  A
N902       Mn932   2.200       .  S
N903        C911   1.354       .  A
N904        N905   1.320       .  A
N904        N906   1.316       .  A
N904       Mn910   2.202       .  S
N905        C912   1.353       .  A
N906        N907   1.321       .  A
N906       Mn932   2.202       .  S
N907        C912   1.354       .  A
N908        N909   1.319       .  A
N908       Mn910   2.196       .  S
N909        C911   1.352       .  A
Mn910      Cl934   2.544       .  S
C911       C1071   1.476       .  S
C912       C1044   1.477       .  S
N913        N914   1.321       .  A
N913        N919   1.315       .  A
N913       Mn921   2.207       .  S
N914        C922   1.355       .  A
N915        N917   1.315       .  A
N915        N916   1.319       .  A
N915       Mn933   2.199       .  S
N916        C923   1.353       .  A
N917        N918   1.321       .  A
N917       Mn921   2.201       .  S
N918        C923   1.354       .  A
N919        N920   1.320       .  A
N919       Mn933   2.203       .  S
N920        C922   1.354       .  A
Mn921      Cl934   2.548       .  S
C922        C951   1.481       .  S
C923        C996   1.477       .  S
N924        N925   1.319       .  A
N924        N930   1.315       .  A
N924       Mn932   2.199       .  S
N925        C935   1.353       .  A
N926        N927   1.320       .  A
N926        N928   1.315       .  A
N926       Mn933   2.200       .  S
N927        C936   1.353       .  A
N928        N929   1.319       .  A
N928       Mn932   2.199       .  S
N929        C936   1.353       .  A
N930        N931   1.320       .  A
N930       Mn933   2.201       .  S
N931        C935   1.353       .  A
Mn932      Cl934   2.550       .  S
Mn933      Cl934   2.543       .  S
C935       C1095   1.476       .  S
C936        C975   1.476       .  S
C937        C938   1.399       .  A
C937        C942   1.404       .  A
C937        H953   1.084       .  S
C938        C939   1.404       .  A
C938        H954   1.084       .  S
C939        C949   1.404       .  A
C939        C940   1.412       .  A
C940        C946   1.411       .  A
C940        C941   1.413       .  A
C941        C943   1.412       .  A
C941        C942   1.411       .  A
C942        C950   1.403       .  A
C943        C952   1.404       .  A
C943        C944   1.404       .  A
C944        C945   1.399       .  A
C944        H955   1.084       .  S
C945        C946   1.404       .  A
C945        H956   1.084       .  S
C946        C947   1.403       .  A
C947        C948   1.407       .  A
C947        H957   1.084       .  S
C948        C949   1.407       .  A
C949        H958   1.084       .  S
C950        C951   1.407       .  A
C950        H959   1.084       .  S
C951        C952   1.407       .  A
C952        H960   1.084       .  S
C961        C962   1.398       .  A
C961        C966   1.403       .  A
C961        H977   1.084       .  S
C962        C963   1.403       .  A
C962        H978   1.084       .  S
C963        C973   1.402       .  A
C963        C964   1.411       .  A
C964        C970   1.412       .  A
C964        C965   1.411       .  A
C965        C967   1.411       .  A
C965        C966   1.412       .  A
C966        C974   1.402       .  A
C967        C976   1.402       .  A
C967        C968   1.403       .  A
C968        C969   1.398       .  A
C968        H979   1.084       .  S
C969        C970   1.403       .  A
C969        H980   1.084       .  S
C970        C971   1.402       .  A
C971        C972   1.406       .  A
C971        H981   1.084       .  S
C972        C973   1.406       .  A
C973        H982   1.084       .  S
C974        C975   1.406       .  A
C974        H983   1.084       .  S
C975        C976   1.406       .  A
C976        H984   1.084       .  S
C985        C986   1.399       .  A
C985        C990   1.403       .  A
C985       H1001   1.084       .  S
C986        C987   1.403       .  A
C986       H1002   1.084       .  S
C987        C997   1.402       .  A
C987        C988   1.411       .  A
C988        C994   1.412       .  A
C988        C989   1.411       .  A
C989        C991   1.411       .  A
C989        C990   1.412       .  A
C990        C998   1.403       .  A
C991       C1000   1.402       .  A
C991        C992   1.403       .  A
C992        C993   1.399       .  A
C992       H1003   1.084       .  S
C993        C994   1.403       .  A
C993       H1004   1.084       .  S
C994        C995   1.403       .  A
C995        C996   1.406       .  A
C995       H1005   1.084       .  S
C996        C997   1.406       .  A
C997       H1006   1.084       .  S
C998        C999   1.406       .  A
C998       H1007   1.084       .  S
C999       C1000   1.406       .  A
C1000      H1008   1.084       .  S
C1009      C1010   1.399       .  A
C1009      C1014   1.403       .  A
C1009      H1025   1.084       .  S
C1010      C1011   1.403       .  A
C1010      H1026   1.084       .  S
C1011      C1021   1.402       .  A
C1011      C1012   1.411       .  A
C1012      C1018   1.412       .  A
C1012      C1013   1.411       .  A
C1013      C1015   1.411       .  A
C1013      C1014   1.412       .  A
C1014      C1022   1.403       .  A
C1015      C1024   1.402       .  A
C1015      C1016   1.403       .  A
C1016      C1017   1.399       .  A
C1016      H1027   1.084       .  S
C1017      C1018   1.403       .  A
C1017      H1028   1.084       .  S
C1018      C1019   1.403       .  A
C1019      C1020   1.406       .  A
C1019      H1029   1.084       .  S
C1020      C1021   1.406       .  A
C1021      H1030   1.084       .  S
C1022      C1023   1.406       .  A
C1022      H1031   1.084       .  S
C1023      C1024   1.406       .  A
C1024      H1032   1.084       .  S
C1033      C1034   1.399       .  A
C1033      C1038   1.403       .  A
C1033      H1049   1.084       .  S
C1034      C1035   1.403       .  A
C1034      H1050   1.084       .  S
C1035      C1045   1.402       .  A
C1035      C1036   1.411       .  A
C1036      C1042   1.412       .  A
C1036      C1037   1.411       .  A
C1037      C1039   1.411       .  A
C1037      C1038   1.412       .  A
C1038      C1046   1.403       .  A
C1039      C1048   1.402       .  A
C1039      C1040   1.403       .  A
C1040      C1041   1.399       .  A
C1040      H1051   1.084       .  S
C1041      C1042   1.403       .  A
C1041      H1052   1.084       .  S
C1042      C1043   1.403       .  A
C1043      C1044   1.406       .  A
C1043      H1053   1.084       .  S
C1044      C1045   1.406       .  A
C1045      H1054   1.084       .  S
C1046      C1047   1.406       .  A
C1046      H1055   1.084       .  S
C1047      C1048   1.406       .  A
C1048      H1056   1.084       .  S
C1057      C1058   1.398       .  A
C1057      C1062   1.403       .  A
C1057      H1073   1.084       .  S
C1058      C1059   1.403       .  A
C1058      H1074   1.084       .  S
C1059      C1069   1.401       .  A
C1059      C1060   1.411       .  A
C1060      C1066   1.412       .  A
C1060      C1061   1.410       .  A
C1061      C1063   1.411       .  A
C1061      C1062   1.412       .  A
C1062      C1070   1.402       .  A
C1063      C1072   1.401       .  A
C1063      C1064   1.403       .  A
C1064      C1065   1.398       .  A
C1064      H1075   1.084       .  S
C1065      C1066   1.403       .  A
C1065      H1076   1.084       .  S
C1066      C1067   1.402       .  A
C1067      C1068   1.405       .  A
C1067      H1077   1.084       .  S
C1068      C1069   1.406       .  A
C1069      H1078   1.084       .  S
C1070      C1071   1.405       .  A
C1070      H1079   1.084       .  S
C1071      C1072   1.406       .  A
C1072      H1080   1.084       .  S
C1081      C1082   1.398       .  A
C1081      C1086   1.403       .  A
C1081      H1097   1.084       .  S
C1082      C1083   1.403       .  A
C1082      H1098   1.084       .  S
C1083      C1093   1.402       .  A
C1083      C1084   1.412       .  A
C1084      C1090   1.411       .  A
C1084      C1085   1.411       .  A
C1085      C1087   1.412       .  A
C1085      C1086   1.411       .  A
C1086      C1094   1.401       .  A
C1087      C1096   1.402       .  A
C1087      C1088   1.403       .  A
C1088      C1089   1.398       .  A
C1088      H1099   1.084       .  S
C1089      C1090   1.403       .  A
C1089      H1100   1.084       .  S
C1090      C1091   1.401       .  A
C1091      C1092   1.406       .  A
C1091      H1101   1.084       .  S
C1092      C1093   1.405       .  A
C1093      H1102   1.084       .  S
C1094      C1095   1.406       .  A
C1094      H1103   1.084       .  S
C1095      C1096   1.405       .  A
C1096      H1104   1.084       .  S
C1105      C1106   1.399       .  A
C1105      C1110   1.404       .  A
C1105      H1121   1.084       .  S
C1106      C1107   1.403       .  A
C1106      H1122   1.084       .  S
C1107      C1117   1.403       .  A
C1107      C1108   1.412       .  A
C1108      C1114   1.411       .  A
C1108      C1109   1.411       .  A
C1109      C1111   1.412       .  A
C1109      C1110   1.411       .  A
C1110      C1118   1.402       .  A
C1111      C1120   1.403       .  A
C1111      C1112   1.403       .  A
C1112      C1113   1.399       .  A
C1112      H1123   1.084       .  S
C1113      C1114   1.404       .  A
C1113      H1124   1.084       .  S
C1114      C1115   1.402       .  A
C1115      C1116   1.406       .  A
C1115      H1125   1.084       .  S
C1116      C1117   1.405       .  A
C1117      H1126   1.084       .  S
C1118      C1119   1.406       .  A
C1118      H1127   1.084       .  S
C1119      C1120   1.405       .  A
C1120      H1128   1.084       .  S
N1129      N1130   1.321       .  A
N1129      N1135   1.316       .  A
N1130      C1137   1.354       .  A
N1131      N1133   1.315       .  A
N1131      N1132   1.319       .  A
N1131     Mn1993   2.196       .  S
N1132      C1138   1.352       .  A
N1133      N1134   1.320       .  A
N1134      C1138   1.354       .  A
N1135      N1136   1.320       .  A
N1135     Mn1429   2.202       .  S
N1136      C1137   1.353       .  A
C1137      C1329   1.477       .  S
C1138      C1350   1.476       .  S
N1139      N1145   1.315       .  A
N1139      N1140   1.320       .  A
N1140      C1148   1.353       .  A
N1141      N1142   1.320       .  A
N1141      N1143   1.315       .  A
N1141     Mn1147   2.198   1_554  S
N1142      C1149   1.353       .  A
N1143      N1144   1.320       .  A
N1144      C1149   1.354       .  A
N1145      N1146   1.321       .  A
N1145     Mn1711   2.201   1_554  S
N1146      C1148   1.354       .  A
Mn1147     N1977   2.196       .  S
Mn1147     N1417   2.202       .  S
Mn1147     N1709   2.201   1_556  S
C1148      C1305   1.478       .  S
C1149      C1398   1.476       .  S
N1150      N1151   1.320       .  A
N1150      N1156   1.315       .  A
N1150     Mn1158   2.199       .  S
N1151      C1159   1.353       .  A
N1152      N1154   1.315       .  A
N1152      N1153   1.320       .  A
N1152     Mn2016   2.202       .  S
N1153      C1160   1.353       .  A
N1154      N1155   1.319       .  A
N1154     Mn1722   2.199       .  S
N1155      C1160   1.353       .  A
N1156      N1157   1.320       .  A
N1156     Mn1452   2.200       .  S
N1157      C1159   1.353       .  A
Mn1158     N1718   2.199   1_545  S
Mn1158    Cl1453   2.550       .  S
C1159      C1254   1.476       .  S
C1160      C1374   1.476       .  S
N1161      N1162   1.321       .  A
N1161      N1167   1.315       .  A
N1161     Mn1733   2.201       .  S
N1162      C1172   1.354       .  A
N1163      N1164   1.320       .  A
N1163      N1165   1.315       .  A
N1163     Mn1170   2.203       .  S
N1164      C1173   1.354       .  A
N1165      N1166   1.321       .  A
N1165     Mn1169   2.207       .  S
N1166      C1173   1.355       .  A
N1167      N1168   1.319       .  A
N1167     Mn1734   2.199       .  S
N1168      C1172   1.353       .  A
Mn1169     N1725   2.201   1_545  S
Mn1169    Cl1171   2.548   1_554  S
Mn1170     N1998   2.202   1_544  S
Mn1170     N1438   2.200   1_554  S
Mn1170     N1731   2.199   1_545  S
Mn1170    Cl1171   2.543   1_554  S
Cl1171    Mn1440   2.550       .  S
C1172      C1281   1.477       .  S
C1173      C1230   1.481       .  S
N1174      N1175   1.320       .  A
N1174      N1180   1.315       .  A
N1174     Mn1203   2.204       .  S
N1175      C1182   1.354       .  A
N1176      N1178   1.315       .  A
N1176      N1177   1.321       .  A
N1176     Mn1192   2.201       .  S
N1177      C1183   1.354       .  A
N1178      N1179   1.320       .  A
N1178     Mn1203   2.202       .  S
N1179      C1183   1.353       .  A
N1180      N1181   1.320       .  A
N1180     Mn1192   2.198       .  S
N1181      C1182   1.353       .  A
C1182      C1401   1.476       .  S
C1183      C1302   1.478       .  S
N1184      N1190   1.315       .  A
N1184      N1185   1.320       .  A
N1184     Mn1214   2.200       .  S
N1185      C1193   1.354       .  A
N1186      N1187   1.320       .  A
N1186      N1188   1.316       .  A
N1186     Mn1192   2.202       .  S
N1187      C1194   1.353       .  A
N1188      N1189   1.321       .  A
N1188     Mn1214   2.202       .  S
N1189      C1194   1.354       .  A
N1190      N1191   1.319       .  A
N1190     Mn1192   2.196       .  S
N1191      C1193   1.352       .  A
Mn1192    Cl1216   2.544       .  S
C1193      C1353   1.476       .  S
C1194      C1326   1.477       .  S
N1195      N1196   1.321       .  A
N1195      N1201   1.315       .  A
N1195     Mn1203   2.207       .  S
N1196      C1204   1.355       .  A
N1197      N1199   1.315       .  A
N1197      N1198   1.319       .  A
N1197     Mn1215   2.199       .  S
N1198      C1205   1.353       .  A
N1199      N1200   1.321       .  A
N1199     Mn1203   2.201       .  S
N1200      C1205   1.354       .  A
N1201      N1202   1.320       .  A
N1201     Mn1215   2.203       .  S
N1202      C1204   1.354       .  A
Mn1203    Cl1216   2.548       .  S
C1204      C1233   1.481       .  S
C1205      C1278   1.477       .  S
N1206      N1207   1.319       .  A
N1206      N1212   1.315       .  A
N1206     Mn1214   2.199       .  S
N1207      C1217   1.353       .  A
N1208      N1209   1.320       .  A
N1208      N1210   1.315       .  A
N1208     Mn1215   2.200       .  S
N1209      C1218   1.353       .  A
N1210      N1211   1.319       .  A
N1210     Mn1214   2.199       .  S
N1211      C1218   1.353       .  A
N1212      N1213   1.320       .  A
N1212     Mn1215   2.201       .  S
N1213      C1217   1.353       .  A
Mn1214    Cl1216   2.550       .  S
Mn1215    Cl1216   2.543       .  S
C1217      C1377   1.476       .  S
C1218      C1257   1.476       .  S
C1219      C1220   1.399       .  A
C1219      C1224   1.404       .  A
C1219      H1235   1.084       .  S
C1220      C1221   1.404       .  A
C1220      H1236   1.084       .  S
C1221      C1231   1.404       .  A
C1221      C1222   1.412       .  A
C1222      C1228   1.411       .  A
C1222      C1223   1.413       .  A
C1223      C1225   1.412       .  A
C1223      C1224   1.411       .  A
C1224      C1232   1.403       .  A
C1225      C1234   1.404       .  A
C1225      C1226   1.404       .  A
C1226      C1227   1.399       .  A
C1226      H1237   1.084       .  S
C1227      C1228   1.404       .  A
C1227      H1238   1.084       .  S
C1228      C1229   1.403       .  A
C1229      C1230   1.407       .  A
C1229      H1239   1.084       .  S
C1230      C1231   1.407       .  A
C1231      H1240   1.084       .  S
C1232      C1233   1.407       .  A
C1232      H1241   1.084       .  S
C1233      C1234   1.407       .  A
C1234      H1242   1.084       .  S
C1243      C1244   1.398       .  A
C1243      C1248   1.403       .  A
C1243      H1259   1.084       .  S
C1244      C1245   1.403       .  A
C1244      H1260   1.084       .  S
C1245      C1255   1.402       .  A
C1245      C1246   1.411       .  A
C1246      C1252   1.412       .  A
C1246      C1247   1.411       .  A
C1247      C1249   1.411       .  A
C1247      C1248   1.412       .  A
C1248      C1256   1.402       .  A
C1249      C1258   1.402       .  A
C1249      C1250   1.403       .  A
C1250      C1251   1.398       .  A
C1250      H1261   1.084       .  S
C1251      C1252   1.403       .  A
C1251      H1262   1.084       .  S
C1252      C1253   1.402       .  A
C1253      C1254   1.406       .  A
C1253      H1263   1.084       .  S
C1254      C1255   1.406       .  A
C1255      H1264   1.084       .  S
C1256      C1257   1.406       .  A
C1256      H1265   1.084       .  S
C1257      C1258   1.406       .  A
C1258      H1266   1.084       .  S
C1267      C1268   1.399       .  A
C1267      C1272   1.403       .  A
C1267      H1283   1.084       .  S
C1268      C1269   1.403       .  A
C1268      H1284   1.084       .  S
C1269      C1279   1.402       .  A
C1269      C1270   1.411       .  A
C1270      C1276   1.412       .  A
C1270      C1271   1.411       .  A
C1271      C1273   1.411       .  A
C1271      C1272   1.412       .  A
C1272      C1280   1.403       .  A
C1273      C1282   1.402       .  A
C1273      C1274   1.403       .  A
C1274      C1275   1.399       .  A
C1274      H1285   1.084       .  S
C1275      C1276   1.403       .  A
C1275      H1286   1.084       .  S
C1276      C1277   1.403       .  A
C1277      C1278   1.406       .  A
C1277      H1287   1.084       .  S
C1278      C1279   1.406       .  A
C1279      H1288   1.084       .  S
C1280      C1281   1.406       .  A
C1280      H1289   1.084       .  S
C1281      C1282   1.406       .  A
C1282      H1290   1.084       .  S
C1291      C1292   1.399       .  A
C1291      C1296   1.403       .  A
C1291      H1307   1.084       .  S
C1292      C1293   1.403       .  A
C1292      H1308   1.084       .  S
C1293      C1303   1.402       .  A
C1293      C1294   1.411       .  A
C1294      C1300   1.412       .  A
C1294      C1295   1.411       .  A
C1295      C1297   1.411       .  A
C1295      C1296   1.412       .  A
C1296      C1304   1.403       .  A
C1297      C1306   1.402       .  A
C1297      C1298   1.403       .  A
C1298      C1299   1.399       .  A
C1298      H1309   1.084       .  S
C1299      C1300   1.403       .  A
C1299      H1310   1.084       .  S
C1300      C1301   1.403       .  A
C1301      C1302   1.406       .  A
C1301      H1311   1.084       .  S
C1302      C1303   1.406       .  A
C1303      H1312   1.084       .  S
C1304      C1305   1.406       .  A
C1304      H1313   1.084       .  S
C1305      C1306   1.406       .  A
C1306      H1314   1.084       .  S
C1315      C1316   1.399       .  A
C1315      C1320   1.403       .  A
C1315      H1331   1.084       .  S
C1316      C1317   1.403       .  A
C1316      H1332   1.084       .  S
C1317      C1327   1.402       .  A
C1317      C1318   1.411       .  A
C1318      C1324   1.412       .  A
C1318      C1319   1.411       .  A
C1319      C1321   1.411       .  A
C1319      C1320   1.412       .  A
C1320      C1328   1.403       .  A
C1321      C1330   1.402       .  A
C1321      C1322   1.403       .  A
C1322      C1323   1.399       .  A
C1322      H1333   1.084       .  S
C1323      C1324   1.403       .  A
C1323      H1334   1.084       .  S
C1324      C1325   1.403       .  A
C1325      C1326   1.406       .  A
C1325      H1335   1.084       .  S
C1326      C1327   1.406       .  A
C1327      H1336   1.084       .  S
C1328      C1329   1.406       .  A
C1328      H1337   1.084       .  S
C1329      C1330   1.406       .  A
C1330      H1338   1.084       .  S
C1339      C1340   1.398       .  A
C1339      C1344   1.403       .  A
C1339      H1355   1.084       .  S
C1340      C1341   1.403       .  A
C1340      H1356   1.084       .  S
C1341      C1351   1.401       .  A
C1341      C1342   1.411       .  A
C1342      C1348   1.412       .  A
C1342      C1343   1.410       .  A
C1343      C1345   1.411       .  A
C1343      C1344   1.412       .  A
C1344      C1352   1.402       .  A
C1345      C1354   1.401       .  A
C1345      C1346   1.403       .  A
C1346      C1347   1.398       .  A
C1346      H1357   1.084       .  S
C1347      C1348   1.403       .  A
C1347      H1358   1.084       .  S
C1348      C1349   1.402       .  A
C1349      C1350   1.405       .  A
C1349      H1359   1.084       .  S
C1350      C1351   1.406       .  A
C1351      H1360   1.084       .  S
C1352      C1353   1.405       .  A
C1352      H1361   1.084       .  S
C1353      C1354   1.406       .  A
C1354      H1362   1.084       .  S
C1363      C1364   1.398       .  A
C1363      C1368   1.403       .  A
C1363      H1379   1.084       .  S
C1364      C1365   1.403       .  A
C1364      H1380   1.084       .  S
C1365      C1375   1.402       .  A
C1365      C1366   1.412       .  A
C1366      C1372   1.411       .  A
C1366      C1367   1.411       .  A
C1367      C1369   1.412       .  A
C1367      C1368   1.411       .  A
C1368      C1376   1.401       .  A
C1369      C1378   1.402       .  A
C1369      C1370   1.403       .  A
C1370      C1371   1.398       .  A
C1370      H1381   1.084       .  S
C1371      C1372   1.403       .  A
C1371      H1382   1.084       .  S
C1372      C1373   1.401       .  A
C1373      C1374   1.406       .  A
C1373      H1383   1.084       .  S
C1374      C1375   1.405       .  A
C1375      H1384   1.084       .  S
C1376      C1377   1.406       .  A
C1376      H1385   1.084       .  S
C1377      C1378   1.405       .  A
C1378      H1386   1.084       .  S
C1387      C1388   1.399       .  A
C1387      C1392   1.404       .  A
C1387      H1403   1.084       .  S
C1388      C1389   1.403       .  A
C1388      H1404   1.084       .  S
C1389      C1399   1.403       .  A
C1389      C1390   1.412       .  A
C1390      C1396   1.411       .  A
C1390      C1391   1.411       .  A
C1391      C1393   1.412       .  A
C1391      C1392   1.411       .  A
C1392      C1400   1.402       .  A
C1393      C1402   1.403       .  A
C1393      C1394   1.403       .  A
C1394      C1395   1.399       .  A
C1394      H1405   1.084       .  S
C1395      C1396   1.404       .  A
C1395      H1406   1.084       .  S
C1396      C1397   1.402       .  A
C1397      C1398   1.406       .  A
C1397      H1407   1.084       .  S
C1398      C1399   1.405       .  A
C1399      H1408   1.084       .  S
C1400      C1401   1.406       .  A
C1400      H1409   1.084       .  S
C1401      C1402   1.405       .  A
C1402      H1410   1.084       .  S
N1411      N1412   1.321       .  A
N1411      N1417   1.316       .  A
N1412      C1419   1.354       .  A
N1413      N1415   1.315       .  A
N1413      N1414   1.319       .  A
N1413     Mn1711   2.196       .  S
N1414      C1420   1.352       .  A
N1415      N1416   1.320       .  A
N1416      C1420   1.354       .  A
N1417      N1418   1.320       .  A
N1418      C1419   1.353       .  A
C1419      C1611   1.477       .  S
C1420      C1632   1.476       .  S
N1421      N1427   1.315       .  A
N1421      N1422   1.320       .  A
N1422      C1430   1.353       .  A
N1423      N1424   1.320       .  A
N1423      N1425   1.315       .  A
N1423     Mn1429   2.198       .  S
N1424      C1431   1.353       .  A
N1425      N1426   1.320       .  A
N1426      C1431   1.354       .  A
N1427      N1428   1.321       .  A
N1427     Mn1993   2.201       .  S
N1428      C1430   1.354       .  A
Mn1429     N1695   2.196       .  S
Mn1429     N1991   2.201       .  S
C1430      C1587   1.478       .  S
C1431      C1680   1.476       .  S
N1432      N1433   1.320       .  A
N1432      N1438   1.315       .  A
N1432     Mn1440   2.199       .  S
N1433      C1441   1.353       .  A
N1434      N1436   1.315       .  A
N1434      N1435   1.320       .  A
N1434     Mn1734   2.202   1_556  S
N1435      C1442   1.353       .  A
N1436      N1437   1.319       .  A
N1436     Mn2004   2.199       .  S
N1437      C1442   1.353       .  A
N1438      N1439   1.320       .  A
N1439      C1441   1.353       .  A
Mn1440     N2000   2.199   1_545  S
C1441      C1536   1.476       .  S
C1442      C1656   1.476       .  S
N1443      N1444   1.321       .  A
N1443      N1449   1.315       .  A
N1443     Mn2015   2.201       .  S
N1444      C1454   1.354       .  A
N1445      N1446   1.320       .  A
N1445      N1447   1.315       .  A
N1445     Mn1452   2.203       .  S
N1446      C1455   1.354       .  A
N1447      N1448   1.321       .  A
N1447     Mn1451   2.207       .  S
N1448      C1455   1.355       .  A
N1449      N1450   1.319       .  A
N1449     Mn2016   2.199       .  S
N1450      C1454   1.353       .  A
Mn1451     N2007   2.201   1_545  S
Mn1451    Cl1453   2.548       .  S
Mn1452     N1716   2.202   1_545  S
Mn1452     N2013   2.199   1_545  S
Mn1452    Cl1453   2.543       .  S
C1454      C1563   1.477       .  S
C1455      C1512   1.481       .  S
N1456      N1457   1.320       .  A
N1456      N1462   1.315       .  A
N1456     Mn1485   2.204       .  S
N1457      C1464   1.354       .  A
N1458      N1460   1.315       .  A
N1458      N1459   1.321       .  A
N1458     Mn1474   2.201       .  S
N1459      C1465   1.354       .  A
N1460      N1461   1.320       .  A
N1460     Mn1485   2.202       .  S
N1461      C1465   1.353       .  A
N1462      N1463   1.320       .  A
N1462     Mn1474   2.198       .  S
N1463      C1464   1.353       .  A
C1464      C1683   1.476       .  S
C1465      C1584   1.478       .  S
N1466      N1472   1.315       .  A
N1466      N1467   1.320       .  A
N1466     Mn1496   2.200       .  S
N1467      C1475   1.354       .  A
N1468      N1469   1.320       .  A
N1468      N1470   1.316       .  A
N1468     Mn1474   2.202       .  S
N1469      C1476   1.353       .  A
N1470      N1471   1.321       .  A
N1470     Mn1496   2.202       .  S
N1471      C1476   1.354       .  A
N1472      N1473   1.319       .  A
N1472     Mn1474   2.196       .  S
N1473      C1475   1.352       .  A
Mn1474    Cl1498   2.544       .  S
C1475      C1635   1.476       .  S
C1476      C1608   1.477       .  S
N1477      N1478   1.321       .  A
N1477      N1483   1.315       .  A
N1477     Mn1485   2.207       .  S
N1478      C1486   1.355       .  A
N1479      N1481   1.315       .  A
N1479      N1480   1.319       .  A
N1479     Mn1497   2.199       .  S
N1480      C1487   1.353       .  A
N1481      N1482   1.321       .  A
N1481     Mn1485   2.201       .  S
N1482      C1487   1.354       .  A
N1483      N1484   1.320       .  A
N1483     Mn1497   2.203       .  S
N1484      C1486   1.354       .  A
Mn1485    Cl1498   2.548       .  S
C1486      C1515   1.481       .  S
C1487      C1560   1.477       .  S
N1488      N1489   1.319       .  A
N1488      N1494   1.315       .  A
N1488     Mn1496   2.199       .  S
N1489      C1499   1.353       .  A
N1490      N1491   1.320       .  A
N1490      N1492   1.315       .  A
N1490     Mn1497   2.200       .  S
N1491      C1500   1.353       .  A
N1492      N1493   1.319       .  A
N1492     Mn1496   2.199       .  S
N1493      C1500   1.353       .  A
N1494      N1495   1.320       .  A
N1494     Mn1497   2.201       .  S
N1495      C1499   1.353       .  A
Mn1496    Cl1498   2.550       .  S
Mn1497    Cl1498   2.543       .  S
C1499      C1659   1.476       .  S
C1500      C1539   1.476       .  S
C1501      C1502   1.399       .  A
C1501      C1506   1.404       .  A
C1501      H1517   1.084       .  S
C1502      C1503   1.404       .  A
C1502      H1518   1.084       .  S
C1503      C1513   1.404       .  A
C1503      C1504   1.412       .  A
C1504      C1510   1.411       .  A
C1504      C1505   1.413       .  A
C1505      C1507   1.412       .  A
C1505      C1506   1.411       .  A
C1506      C1514   1.403       .  A
C1507      C1516   1.404       .  A
C1507      C1508   1.404       .  A
C1508      C1509   1.399       .  A
C1508      H1519   1.084       .  S
C1509      C1510   1.404       .  A
C1509      H1520   1.084       .  S
C1510      C1511   1.403       .  A
C1511      C1512   1.407       .  A
C1511      H1521   1.084       .  S
C1512      C1513   1.407       .  A
C1513      H1522   1.084       .  S
C1514      C1515   1.407       .  A
C1514      H1523   1.084       .  S
C1515      C1516   1.407       .  A
C1516      H1524   1.084       .  S
C1525      C1526   1.398       .  A
C1525      C1530   1.403       .  A
C1525      H1541   1.084       .  S
C1526      C1527   1.403       .  A
C1526      H1542   1.084       .  S
C1527      C1537   1.402       .  A
C1527      C1528   1.411       .  A
C1528      C1534   1.412       .  A
C1528      C1529   1.411       .  A
C1529      C1531   1.411       .  A
C1529      C1530   1.412       .  A
C1530      C1538   1.402       .  A
C1531      C1540   1.402       .  A
C1531      C1532   1.403       .  A
C1532      C1533   1.398       .  A
C1532      H1543   1.084       .  S
C1533      C1534   1.403       .  A
C1533      H1544   1.084       .  S
C1534      C1535   1.402       .  A
C1535      C1536   1.406       .  A
C1535      H1545   1.084       .  S
C1536      C1537   1.406       .  A
C1537      H1546   1.084       .  S
C1538      C1539   1.406       .  A
C1538      H1547   1.084       .  S
C1539      C1540   1.406       .  A
C1540      H1548   1.084       .  S
C1549      C1550   1.399       .  A
C1549      C1554   1.403       .  A
C1549      H1565   1.084       .  S
C1550      C1551   1.403       .  A
C1550      H1566   1.084       .  S
C1551      C1561   1.402       .  A
C1551      C1552   1.411       .  A
C1552      C1558   1.412       .  A
C1552      C1553   1.411       .  A
C1553      C1555   1.411       .  A
C1553      C1554   1.412       .  A
C1554      C1562   1.403       .  A
C1555      C1564   1.402       .  A
C1555      C1556   1.403       .  A
C1556      C1557   1.399       .  A
C1556      H1567   1.084       .  S
C1557      C1558   1.403       .  A
C1557      H1568   1.084       .  S
C1558      C1559   1.403       .  A
C1559      C1560   1.406       .  A
C1559      H1569   1.084       .  S
C1560      C1561   1.406       .  A
C1561      H1570   1.084       .  S
C1562      C1563   1.406       .  A
C1562      H1571   1.084       .  S
C1563      C1564   1.406       .  A
C1564      H1572   1.084       .  S
C1573      C1574   1.399       .  A
C1573      C1578   1.403       .  A
C1573      H1589   1.084       .  S
C1574      C1575   1.403       .  A
C1574      H1590   1.084       .  S
C1575      C1585   1.402       .  A
C1575      C1576   1.411       .  A
C1576      C1582   1.412       .  A
C1576      C1577   1.411       .  A
C1577      C1579   1.411       .  A
C1577      C1578   1.412       .  A
C1578      C1586   1.403       .  A
C1579      C1588   1.402       .  A
C1579      C1580   1.403       .  A
C1580      C1581   1.399       .  A
C1580      H1591   1.084       .  S
C1581      C1582   1.403       .  A
C1581      H1592   1.084       .  S
C1582      C1583   1.403       .  A
C1583      C1584   1.406       .  A
C1583      H1593   1.084       .  S
C1584      C1585   1.406       .  A
C1585      H1594   1.084       .  S
C1586      C1587   1.406       .  A
C1586      H1595   1.084       .  S
C1587      C1588   1.406       .  A
C1588      H1596   1.084       .  S
C1597      C1598   1.399       .  A
C1597      C1602   1.403       .  A
C1597      H1613   1.084       .  S
C1598      C1599   1.403       .  A
C1598      H1614   1.084       .  S
C1599      C1609   1.402       .  A
C1599      C1600   1.411       .  A
C1600      C1606   1.412       .  A
C1600      C1601   1.411       .  A
C1601      C1603   1.411       .  A
C1601      C1602   1.412       .  A
C1602      C1610   1.403       .  A
C1603      C1612   1.402       .  A
C1603      C1604   1.403       .  A
C1604      C1605   1.399       .  A
C1604      H1615   1.084       .  S
C1605      C1606   1.403       .  A
C1605      H1616   1.084       .  S
C1606      C1607   1.403       .  A
C1607      C1608   1.406       .  A
C1607      H1617   1.084       .  S
C1608      C1609   1.406       .  A
C1609      H1618   1.084       .  S
C1610      C1611   1.406       .  A
C1610      H1619   1.084       .  S
C1611      C1612   1.406       .  A
C1612      H1620   1.084       .  S
C1621      C1622   1.398       .  A
C1621      C1626   1.403       .  A
C1621      H1637   1.084       .  S
C1622      C1623   1.403       .  A
C1622      H1638   1.084       .  S
C1623      C1633   1.401       .  A
C1623      C1624   1.411       .  A
C1624      C1630   1.412       .  A
C1624      C1625   1.410       .  A
C1625      C1627   1.411       .  A
C1625      C1626   1.412       .  A
C1626      C1634   1.402       .  A
C1627      C1636   1.401       .  A
C1627      C1628   1.403       .  A
C1628      C1629   1.398       .  A
C1628      H1639   1.084       .  S
C1629      C1630   1.403       .  A
C1629      H1640   1.084       .  S
C1630      C1631   1.402       .  A
C1631      C1632   1.405       .  A
C1631      H1641   1.084       .  S
C1632      C1633   1.406       .  A
C1633      H1642   1.084       .  S
C1634      C1635   1.405       .  A
C1634      H1643   1.084       .  S
C1635      C1636   1.406       .  A
C1636      H1644   1.084       .  S
C1645      C1646   1.398       .  A
C1645      C1650   1.403       .  A
C1645      H1661   1.084       .  S
C1646      C1647   1.403       .  A
C1646      H1662   1.084       .  S
C1647      C1657   1.402       .  A
C1647      C1648   1.412       .  A
C1648      C1654   1.411       .  A
C1648      C1649   1.411       .  A
C1649      C1651   1.412       .  A
C1649      C1650   1.411       .  A
C1650      C1658   1.401       .  A
C1651      C1660   1.402       .  A
C1651      C1652   1.403       .  A
C1652      C1653   1.398       .  A
C1652      H1663   1.084       .  S
C1653      C1654   1.403       .  A
C1653      H1664   1.084       .  S
C1654      C1655   1.401       .  A
C1655      C1656   1.406       .  A
C1655      H1665   1.084       .  S
C1656      C1657   1.405       .  A
C1657      H1666   1.084       .  S
C1658      C1659   1.406       .  A
C1658      H1667   1.084       .  S
C1659      C1660   1.405       .  A
C1660      H1668   1.084       .  S
C1669      C1670   1.399       .  A
C1669      C1674   1.404       .  A
C1669      H1685   1.084       .  S
C1670      C1671   1.403       .  A
C1670      H1686   1.084       .  S
C1671      C1681   1.403       .  A
C1671      C1672   1.412       .  A
C1672      C1678   1.411       .  A
C1672      C1673   1.411       .  A
C1673      C1675   1.412       .  A
C1673      C1674   1.411       .  A
C1674      C1682   1.402       .  A
C1675      C1684   1.403       .  A
C1675      C1676   1.403       .  A
C1676      C1677   1.399       .  A
C1676      H1687   1.084       .  S
C1677      C1678   1.404       .  A
C1677      H1688   1.084       .  S
C1678      C1679   1.402       .  A
C1679      C1680   1.406       .  A
C1679      H1689   1.084       .  S
C1680      C1681   1.405       .  A
C1681      H1690   1.084       .  S
C1682      C1683   1.406       .  A
C1682      H1691   1.084       .  S
C1683      C1684   1.405       .  A
C1684      H1692   1.084       .  S
N1693      N1694   1.321       .  A
N1693      N1699   1.316       .  A
N1694      C1701   1.354       .  A
N1695      N1697   1.315       .  A
N1695      N1696   1.319       .  A
N1696      C1702   1.352       .  A
N1697      N1698   1.320       .  A
N1698      C1702   1.354       .  A
N1699      N1700   1.320       .  A
N1699     Mn1993   2.202   1_565  S
N1700      C1701   1.353       .  A
C1701      C1893   1.477       .  S
C1702      C1914   1.476       .  S
N1703      N1709   1.315       .  A
N1703      N1704   1.320       .  A
N1704      C1712   1.353       .  A
N1705      N1706   1.320       .  A
N1705      N1707   1.315       .  A
N1705     Mn1711   2.198   1_564  S
N1706      C1713   1.353       .  A
N1707      N1708   1.320       .  A
N1708      C1713   1.354       .  A
N1709      N1710   1.321       .  A
N1710      C1712   1.354       .  A
Mn1711     N1981   2.202   1_545  S
C1712      C1869   1.478       .  S
C1713      C1962   1.476       .  S
N1714      N1715   1.320       .  A
N1714      N1720   1.315       .  A
N1714     Mn1722   2.199       .  S
N1715      C1723   1.353       .  A
N1716      N1718   1.315       .  A
N1716      N1717   1.320       .  A
N1717      C1724   1.353       .  A
N1718      N1719   1.319       .  A
N1719      C1724   1.353       .  A
N1720      N1721   1.320       .  A
N1720     Mn2016   2.200       .  S
N1721      C1723   1.353       .  A
Mn1722    Cl2017   2.550       .  S
C1723      C1818   1.476       .  S
C1724      C1938   1.476       .  S
N1725      N1726   1.321       .  A
N1725      N1731   1.315       .  A
N1726      C1736   1.354       .  A
N1727      N1728   1.320       .  A
N1727      N1729   1.315       .  A
N1727     Mn1734   2.203       .  S
N1728      C1737   1.354       .  A
N1729      N1730   1.321       .  A
N1729     Mn1733   2.207       .  S
N1730      C1737   1.355       .  A
N1731      N1732   1.319       .  A
N1732      C1736   1.353       .  A
Mn1733    Cl1735   2.548   1_554  S
Mn1734     N2002   2.200   1_554  S
Mn1734    Cl1735   2.543   1_554  S
Cl1735    Mn2004   2.550       .  S
C1736      C1845   1.477       .  S
C1737      C1794   1.481       .  S
N1738      N1739   1.320       .  A
N1738      N1744   1.315       .  A
N1738     Mn1767   2.204       .  S
N1739      C1746   1.354       .  A
N1740      N1742   1.315       .  A
N1740      N1741   1.321       .  A
N1740     Mn1756   2.201       .  S
N1741      C1747   1.354       .  A
N1742      N1743   1.320       .  A
N1742     Mn1767   2.202       .  S
N1743      C1747   1.353       .  A
N1744      N1745   1.320       .  A
N1744     Mn1756   2.198       .  S
N1745      C1746   1.353       .  A
C1746      C1965   1.476       .  S
C1747      C1866   1.478       .  S
N1748      N1754   1.315       .  A
N1748      N1749   1.320       .  A
N1748     Mn1778   2.200       .  S
N1749      C1757   1.354       .  A
N1750      N1751   1.320       .  A
N1750      N1752   1.316       .  A
N1750     Mn1756   2.202       .  S
N1751      C1758   1.353       .  A
N1752      N1753   1.321       .  A
N1752     Mn1778   2.202       .  S
N1753      C1758   1.354       .  A
N1754      N1755   1.319       .  A
N1754     Mn1756   2.196       .  S
N1755      C1757   1.352       .  A
Mn1756    Cl1780   2.544       .  S
C1757      C1917   1.476       .  S
C1758      C1890   1.477       .  S
N1759      N1760   1.321       .  A
N1759      N1765   1.315       .  A
N1759     Mn1767   2.207       .  S
N1760      C1768   1.355       .  A
N1761      N1763   1.315       .  A
N1761      N1762   1.319       .  A
N1761     Mn1779   2.199       .  S
N1762      C1769   1.353       .  A
N1763      N1764   1.321       .  A
N1763     Mn1767   2.201       .  S
N1764      C1769   1.354       .  A
N1765      N1766   1.320       .  A
N1765     Mn1779   2.203       .  S
N1766      C1768   1.354       .  A
Mn1767    Cl1780   2.548       .  S
C1768      C1797   1.481       .  S
C1769      C1842   1.477       .  S
N1770      N1771   1.319       .  A
N1770      N1776   1.315       .  A
N1770     Mn1778   2.199       .  S
N1771      C1781   1.353       .  A
N1772      N1773   1.320       .  A
N1772      N1774   1.315       .  A
N1772     Mn1779   2.200       .  S
N1773      C1782   1.353       .  A
N1774      N1775   1.319       .  A
N1774     Mn1778   2.199       .  S
N1775      C1782   1.353       .  A
N1776      N1777   1.320       .  A
N1776     Mn1779   2.201       .  S
N1777      C1781   1.353       .  A
Mn1778    Cl1780   2.550       .  S
Mn1779    Cl1780   2.543       .  S
C1781      C1941   1.476       .  S
C1782      C1821   1.476       .  S
C1783      C1784   1.399       .  A
C1783      C1788   1.404       .  A
C1783      H1799   1.084       .  S
C1784      C1785   1.404       .  A
C1784      H1800   1.084       .  S
C1785      C1795   1.404       .  A
C1785      C1786   1.412       .  A
C1786      C1792   1.411       .  A
C1786      C1787   1.413       .  A
C1787      C1789   1.412       .  A
C1787      C1788   1.411       .  A
C1788      C1796   1.403       .  A
C1789      C1798   1.404       .  A
C1789      C1790   1.404       .  A
C1790      C1791   1.399       .  A
C1790      H1801   1.084       .  S
C1791      C1792   1.404       .  A
C1791      H1802   1.084       .  S
C1792      C1793   1.403       .  A
C1793      C1794   1.407       .  A
C1793      H1803   1.084       .  S
C1794      C1795   1.407       .  A
C1795      H1804   1.084       .  S
C1796      C1797   1.407       .  A
C1796      H1805   1.084       .  S
C1797      C1798   1.407       .  A
C1798      H1806   1.084       .  S
C1807      C1808   1.398       .  A
C1807      C1812   1.403       .  A
C1807      H1823   1.084       .  S
C1808      C1809   1.403       .  A
C1808      H1824   1.084       .  S
C1809      C1819   1.402       .  A
C1809      C1810   1.411       .  A
C1810      C1816   1.412       .  A
C1810      C1811   1.411       .  A
C1811      C1813   1.411       .  A
C1811      C1812   1.412       .  A
C1812      C1820   1.402       .  A
C1813      C1822   1.402       .  A
C1813      C1814   1.403       .  A
C1814      C1815   1.398       .  A
C1814      H1825   1.084       .  S
C1815      C1816   1.403       .  A
C1815      H1826   1.084       .  S
C1816      C1817   1.402       .  A
C1817      C1818   1.406       .  A
C1817      H1827   1.084       .  S
C1818      C1819   1.406       .  A
C1819      H1828   1.084       .  S
C1820      C1821   1.406       .  A
C1820      H1829   1.084       .  S
C1821      C1822   1.406       .  A
C1822      H1830   1.084       .  S
C1831      C1832   1.399       .  A
C1831      C1836   1.403       .  A
C1831      H1847   1.084       .  S
C1832      C1833   1.403       .  A
C1832      H1848   1.084       .  S
C1833      C1843   1.402       .  A
C1833      C1834   1.411       .  A
C1834      C1840   1.412       .  A
C1834      C1835   1.411       .  A
C1835      C1837   1.411       .  A
C1835      C1836   1.412       .  A
C1836      C1844   1.403       .  A
C1837      C1846   1.402       .  A
C1837      C1838   1.403       .  A
C1838      C1839   1.399       .  A
C1838      H1849   1.084       .  S
C1839      C1840   1.403       .  A
C1839      H1850   1.084       .  S
C1840      C1841   1.403       .  A
C1841      C1842   1.406       .  A
C1841      H1851   1.084       .  S
C1842      C1843   1.406       .  A
C1843      H1852   1.084       .  S
C1844      C1845   1.406       .  A
C1844      H1853   1.084       .  S
C1845      C1846   1.406       .  A
C1846      H1854   1.084       .  S
C1855      C1856   1.399       .  A
C1855      C1860   1.403       .  A
C1855      H1871   1.084       .  S
C1856      C1857   1.403       .  A
C1856      H1872   1.084       .  S
C1857      C1867   1.402       .  A
C1857      C1858   1.411       .  A
C1858      C1864   1.412       .  A
C1858      C1859   1.411       .  A
C1859      C1861   1.411       .  A
C1859      C1860   1.412       .  A
C1860      C1868   1.403       .  A
C1861      C1870   1.402       .  A
C1861      C1862   1.403       .  A
C1862      C1863   1.399       .  A
C1862      H1873   1.084       .  S
C1863      C1864   1.403       .  A
C1863      H1874   1.084       .  S
C1864      C1865   1.403       .  A
C1865      C1866   1.406       .  A
C1865      H1875   1.084       .  S
C1866      C1867   1.406       .  A
C1867      H1876   1.084       .  S
C1868      C1869   1.406       .  A
C1868      H1877   1.084       .  S
C1869      C1870   1.406       .  A
C1870      H1878   1.084       .  S
C1879      C1880   1.399       .  A
C1879      C1884   1.403       .  A
C1879      H1895   1.084       .  S
C1880      C1881   1.403       .  A
C1880      H1896   1.084       .  S
C1881      C1891   1.402       .  A
C1881      C1882   1.411       .  A
C1882      C1888   1.412       .  A
C1882      C1883   1.411       .  A
C1883      C1885   1.411       .  A
C1883      C1884   1.412       .  A
C1884      C1892   1.403       .  A
C1885      C1894   1.402       .  A
C1885      C1886   1.403       .  A
C1886      C1887   1.399       .  A
C1886      H1897   1.084       .  S
C1887      C1888   1.403       .  A
C1887      H1898   1.084       .  S
C1888      C1889   1.403       .  A
C1889      C1890   1.406       .  A
C1889      H1899   1.084       .  S
C1890      C1891   1.406       .  A
C1891      H1900   1.084       .  S
C1892      C1893   1.406       .  A
C1892      H1901   1.084       .  S
C1893      C1894   1.406       .  A
C1894      H1902   1.084       .  S
C1903      C1904   1.398       .  A
C1903      C1908   1.403       .  A
C1903      H1919   1.084       .  S
C1904      C1905   1.403       .  A
C1904      H1920   1.084       .  S
C1905      C1915   1.401       .  A
C1905      C1906   1.411       .  A
C1906      C1912   1.412       .  A
C1906      C1907   1.410       .  A
C1907      C1909   1.411       .  A
C1907      C1908   1.412       .  A
C1908      C1916   1.402       .  A
C1909      C1918   1.401       .  A
C1909      C1910   1.403       .  A
C1910      C1911   1.398       .  A
C1910      H1921   1.084       .  S
C1911      C1912   1.403       .  A
C1911      H1922   1.084       .  S
C1912      C1913   1.402       .  A
C1913      C1914   1.405       .  A
C1913      H1923   1.084       .  S
C1914      C1915   1.406       .  A
C1915      H1924   1.084       .  S
C1916      C1917   1.405       .  A
C1916      H1925   1.084       .  S
C1917      C1918   1.406       .  A
C1918      H1926   1.084       .  S
C1927      C1928   1.398       .  A
C1927      C1932   1.403       .  A
C1927      H1943   1.084       .  S
C1928      C1929   1.403       .  A
C1928      H1944   1.084       .  S
C1929      C1939   1.402       .  A
C1929      C1930   1.412       .  A
C1930      C1936   1.411       .  A
C1930      C1931   1.411       .  A
C1931      C1933   1.412       .  A
C1931      C1932   1.411       .  A
C1932      C1940   1.401       .  A
C1933      C1942   1.402       .  A
C1933      C1934   1.403       .  A
C1934      C1935   1.398       .  A
C1934      H1945   1.084       .  S
C1935      C1936   1.403       .  A
C1935      H1946   1.084       .  S
C1936      C1937   1.401       .  A
C1937      C1938   1.406       .  A
C1937      H1947   1.084       .  S
C1938      C1939   1.405       .  A
C1939      H1948   1.084       .  S
C1940      C1941   1.406       .  A
C1940      H1949   1.084       .  S
C1941      C1942   1.405       .  A
C1942      H1950   1.084       .  S
C1951      C1952   1.399       .  A
C1951      C1956   1.404       .  A
C1951      H1967   1.084       .  S
C1952      C1953   1.403       .  A
C1952      H1968   1.084       .  S
C1953      C1963   1.403       .  A
C1953      C1954   1.412       .  A
C1954      C1960   1.411       .  A
C1954      C1955   1.411       .  A
C1955      C1957   1.412       .  A
C1955      C1956   1.411       .  A
C1956      C1964   1.402       .  A
C1957      C1966   1.403       .  A
C1957      C1958   1.403       .  A
C1958      C1959   1.399       .  A
C1958      H1969   1.084       .  S
C1959      C1960   1.404       .  A
C1959      H1970   1.084       .  S
C1960      C1961   1.402       .  A
C1961      C1962   1.406       .  A
C1961      H1971   1.084       .  S
C1962      C1963   1.405       .  A
C1963      H1972   1.084       .  S
C1964      C1965   1.406       .  A
C1964      H1973   1.084       .  S
C1965      C1966   1.405       .  A
C1966      H1974   1.084       .  S
N1975      N1976   1.321       .  A
N1975      N1981   1.316       .  A
N1976      C1983   1.354       .  A
N1977      N1979   1.315       .  A
N1977      N1978   1.319       .  A
N1978      C1984   1.352       .  A
N1979      N1980   1.320       .  A
N1980      C1984   1.354       .  A
N1981      N1982   1.320       .  A
N1982      C1983   1.353       .  A
C1983      C2175   1.477       .  S
C1984      C2196   1.476       .  S
N1985      N1991   1.315       .  A
N1985      N1986   1.320       .  A
N1986      C1994   1.353       .  A
N1987      N1988   1.320       .  A
N1987      N1989   1.315       .  A
N1987     Mn1993   2.198   1_565  S
N1988      C1995   1.353       .  A
N1989      N1990   1.320       .  A
N1990      C1995   1.354       .  A
N1991      N1992   1.321       .  A
N1992      C1994   1.354       .  A
C1994      C2151   1.478       .  S
C1995      C2244   1.476       .  S
N1996      N1997   1.320       .  A
N1996      N2002   1.315       .  A
N1996     Mn2004   2.199       .  S
N1997      C2005   1.353       .  A
N1998      N2000   1.315       .  A
N1998      N1999   1.320       .  A
N1999      C2006   1.353       .  A
N2000      N2001   1.319       .  A
N2001      C2006   1.353       .  A
N2002      N2003   1.320       .  A
N2003      C2005   1.353       .  A
C2005      C2100   1.476       .  S
C2006      C2220   1.476       .  S
N2007      N2008   1.321       .  A
N2007      N2013   1.315       .  A
N2008      C2018   1.354       .  A
N2009      N2010   1.320       .  A
N2009      N2011   1.315       .  A
N2009     Mn2016   2.203       .  S
N2010      C2019   1.354       .  A
N2011      N2012   1.321       .  A
N2011     Mn2015   2.207       .  S
N2012      C2019   1.355       .  A
N2013      N2014   1.319       .  A
N2014      C2018   1.353       .  A
Mn2015    Cl2017   2.548       .  S
Mn2016    Cl2017   2.543       .  S
C2018      C2127   1.477       .  S
C2019      C2076   1.481       .  S
N2020      N2021   1.320       .  A
N2020      N2026   1.315       .  A
N2020     Mn2049   2.204       .  S
N2021      C2028   1.354       .  A
N2022      N2024   1.315       .  A
N2022      N2023   1.321       .  A
N2022     Mn2038   2.201       .  S
N2023      C2029   1.354       .  A
N2024      N2025   1.320       .  A
N2024     Mn2049   2.202       .  S
N2025      C2029   1.353       .  A
N2026      N2027   1.320       .  A
N2026     Mn2038   2.198       .  S
N2027      C2028   1.353       .  A
C2028      C2247   1.476       .  S
C2029      C2148   1.478       .  S
N2030      N2036   1.315       .  A
N2030      N2031   1.320       .  A
N2030     Mn2060   2.200       .  S
N2031      C2039   1.354       .  A
N2032      N2033   1.320       .  A
N2032      N2034   1.316       .  A
N2032     Mn2038   2.202       .  S
N2033      C2040   1.353       .  A
N2034      N2035   1.321       .  A
N2034     Mn2060   2.202       .  S
N2035      C2040   1.354       .  A
N2036      N2037   1.319       .  A
N2036     Mn2038   2.196       .  S
N2037      C2039   1.352       .  A
Mn2038    Cl2062   2.544       .  S
C2039      C2199   1.476       .  S
C2040      C2172   1.477       .  S
N2041      N2042   1.321       .  A
N2041      N2047   1.315       .  A
N2041     Mn2049   2.207       .  S
N2042      C2050   1.355       .  A
N2043      N2045   1.315       .  A
N2043      N2044   1.319       .  A
N2043     Mn2061   2.199       .  S
N2044      C2051   1.353       .  A
N2045      N2046   1.321       .  A
N2045     Mn2049   2.201       .  S
N2046      C2051   1.354       .  A
N2047      N2048   1.320       .  A
N2047     Mn2061   2.203       .  S
N2048      C2050   1.354       .  A
Mn2049    Cl2062   2.548       .  S
C2050      C2079   1.481       .  S
C2051      C2124   1.477       .  S
N2052      N2053   1.319       .  A
N2052      N2058   1.315       .  A
N2052     Mn2060   2.199       .  S
N2053      C2063   1.353       .  A
N2054      N2055   1.320       .  A
N2054      N2056   1.315       .  A
N2054     Mn2061   2.200       .  S
N2055      C2064   1.353       .  A
N2056      N2057   1.319       .  A
N2056     Mn2060   2.199       .  S
N2057      C2064   1.353       .  A
N2058      N2059   1.320       .  A
N2058     Mn2061   2.201       .  S
N2059      C2063   1.353       .  A
Mn2060    Cl2062   2.550       .  S
Mn2061    Cl2062   2.543       .  S
C2063      C2223   1.476       .  S
C2064      C2103   1.476       .  S
C2065      C2066   1.399       .  A
C2065      C2070   1.404       .  A
C2065      H2081   1.084       .  S
C2066      C2067   1.404       .  A
C2066      H2082   1.084       .  S
C2067      C2077   1.404       .  A
C2067      C2068   1.412       .  A
C2068      C2074   1.411       .  A
C2068      C2069   1.413       .  A
C2069      C2071   1.412       .  A
C2069      C2070   1.411       .  A
C2070      C2078   1.403       .  A
C2071      C2080   1.404       .  A
C2071      C2072   1.404       .  A
C2072      C2073   1.399       .  A
C2072      H2083   1.084       .  S
C2073      C2074   1.404       .  A
C2073      H2084   1.084       .  S
C2074      C2075   1.403       .  A
C2075      C2076   1.407       .  A
C2075      H2085   1.084       .  S
C2076      C2077   1.407       .  A
C2077      H2086   1.084       .  S
C2078      C2079   1.407       .  A
C2078      H2087   1.084       .  S
C2079      C2080   1.407       .  A
C2080      H2088   1.084       .  S
C2089      C2090   1.398       .  A
C2089      C2094   1.403       .  A
C2089      H2105   1.084       .  S
C2090      C2091   1.403       .  A
C2090      H2106   1.084       .  S
C2091      C2101   1.402       .  A
C2091      C2092   1.411       .  A
C2092      C2098   1.412       .  A
C2092      C2093   1.411       .  A
C2093      C2095   1.411       .  A
C2093      C2094   1.412       .  A
C2094      C2102   1.402       .  A
C2095      C2104   1.402       .  A
C2095      C2096   1.403       .  A
C2096      C2097   1.398       .  A
C2096      H2107   1.084       .  S
C2097      C2098   1.403       .  A
C2097      H2108   1.084       .  S
C2098      C2099   1.402       .  A
C2099      C2100   1.406       .  A
C2099      H2109   1.084       .  S
C2100      C2101   1.406       .  A
C2101      H2110   1.084       .  S
C2102      C2103   1.406       .  A
C2102      H2111   1.084       .  S
C2103      C2104   1.406       .  A
C2104      H2112   1.084       .  S
C2113      C2114   1.399       .  A
C2113      C2118   1.403       .  A
C2113      H2129   1.084       .  S
C2114      C2115   1.403       .  A
C2114      H2130   1.084       .  S
C2115      C2125   1.402       .  A
C2115      C2116   1.411       .  A
C2116      C2122   1.412       .  A
C2116      C2117   1.411       .  A
C2117      C2119   1.411       .  A
C2117      C2118   1.412       .  A
C2118      C2126   1.403       .  A
C2119      C2128   1.402       .  A
C2119      C2120   1.403       .  A
C2120      C2121   1.399       .  A
C2120      H2131   1.084       .  S
C2121      C2122   1.403       .  A
C2121      H2132   1.084       .  S
C2122      C2123   1.403       .  A
C2123      C2124   1.406       .  A
C2123      H2133   1.084       .  S
C2124      C2125   1.406       .  A
C2125      H2134   1.084       .  S
C2126      C2127   1.406       .  A
C2126      H2135   1.084       .  S
C2127      C2128   1.406       .  A
C2128      H2136   1.084       .  S
C2137      C2138   1.399       .  A
C2137      C2142   1.403       .  A
C2137      H2153   1.084       .  S
C2138      C2139   1.403       .  A
C2138      H2154   1.084       .  S
C2139      C2149   1.402       .  A
C2139      C2140   1.411       .  A
C2140      C2146   1.412       .  A
C2140      C2141   1.411       .  A
C2141      C2143   1.411       .  A
C2141      C2142   1.412       .  A
C2142      C2150   1.403       .  A
C2143      C2152   1.402       .  A
C2143      C2144   1.403       .  A
C2144      C2145   1.399       .  A
C2144      H2155   1.084       .  S
C2145      C2146   1.403       .  A
C2145      H2156   1.084       .  S
C2146      C2147   1.403       .  A
C2147      C2148   1.406       .  A
C2147      H2157   1.084       .  S
C2148      C2149   1.406       .  A
C2149      H2158   1.084       .  S
C2150      C2151   1.406       .  A
C2150      H2159   1.084       .  S
C2151      C2152   1.406       .  A
C2152      H2160   1.084       .  S
C2161      C2162   1.399       .  A
C2161      C2166   1.403       .  A
C2161      H2177   1.084       .  S
C2162      C2163   1.403       .  A
C2162      H2178   1.084       .  S
C2163      C2173   1.402       .  A
C2163      C2164   1.411       .  A
C2164      C2170   1.412       .  A
C2164      C2165   1.411       .  A
C2165      C2167   1.411       .  A
C2165      C2166   1.412       .  A
C2166      C2174   1.403       .  A
C2167      C2176   1.402       .  A
C2167      C2168   1.403       .  A
C2168      C2169   1.399       .  A
C2168      H2179   1.084       .  S
C2169      C2170   1.403       .  A
C2169      H2180   1.084       .  S
C2170      C2171   1.403       .  A
C2171      C2172   1.406       .  A
C2171      H2181   1.084       .  S
C2172      C2173   1.406       .  A
C2173      H2182   1.084       .  S
C2174      C2175   1.406       .  A
C2174      H2183   1.084       .  S
C2175      C2176   1.406       .  A
C2176      H2184   1.084       .  S
C2185      C2186   1.398       .  A
C2185      C2190   1.403       .  A
C2185      H2201   1.084       .  S
C2186      C2187   1.403       .  A
C2186      H2202   1.084       .  S
C2187      C2197   1.401       .  A
C2187      C2188   1.411       .  A
C2188      C2194   1.412       .  A
C2188      C2189   1.410       .  A
C2189      C2191   1.411       .  A
C2189      C2190   1.412       .  A
C2190      C2198   1.402       .  A
C2191      C2200   1.401       .  A
C2191      C2192   1.403       .  A
C2192      C2193   1.398       .  A
C2192      H2203   1.084       .  S
C2193      C2194   1.403       .  A
C2193      H2204   1.084       .  S
C2194      C2195   1.402       .  A
C2195      C2196   1.405       .  A
C2195      H2205   1.084       .  S
C2196      C2197   1.406       .  A
C2197      H2206   1.084       .  S
C2198      C2199   1.405       .  A
C2198      H2207   1.084       .  S
C2199      C2200   1.406       .  A
C2200      H2208   1.084       .  S
C2209      C2210   1.398       .  A
C2209      C2214   1.403       .  A
C2209      H2225   1.084       .  S
C2210      C2211   1.403       .  A
C2210      H2226   1.084       .  S
C2211      C2221   1.402       .  A
C2211      C2212   1.412       .  A
C2212      C2218   1.411       .  A
C2212      C2213   1.411       .  A
C2213      C2215   1.412       .  A
C2213      C2214   1.411       .  A
C2214      C2222   1.401       .  A
C2215      C2224   1.402       .  A
C2215      C2216   1.403       .  A
C2216      C2217   1.398       .  A
C2216      H2227   1.084       .  S
C2217      C2218   1.403       .  A
C2217      H2228   1.084       .  S
C2218      C2219   1.401       .  A
C2219      C2220   1.406       .  A
C2219      H2229   1.084       .  S
C2220      C2221   1.405       .  A
C2221      H2230   1.084       .  S
C2222      C2223   1.406       .  A
C2222      H2231   1.084       .  S
C2223      C2224   1.405       .  A
C2224      H2232   1.084       .  S
C2233      C2234   1.399       .  A
C2233      C2238   1.404       .  A
C2233      H2249   1.084       .  S
C2234      C2235   1.403       .  A
C2234      H2250   1.084       .  S
C2235      C2245   1.403       .  A
C2235      C2236   1.412       .  A
C2236      C2242   1.411       .  A
C2236      C2237   1.411       .  A
C2237      C2239   1.412       .  A
C2237      C2238   1.411       .  A
C2238      C2246   1.402       .  A
C2239      C2248   1.403       .  A
C2239      C2240   1.403       .  A
C2240      C2241   1.399       .  A
C2240      H2251   1.084       .  S
C2241      C2242   1.404       .  A
C2241      H2252   1.084       .  S
C2242      C2243   1.402       .  A
C2243      C2244   1.406       .  A
C2243      H2253   1.084       .  S
C2244      C2245   1.405       .  A
C2245      H2254   1.084       .  S
C2246      C2247   1.406       .  A
C2246      H2255   1.084       .  S
C2247      C2248   1.405       .  A
C2248      H2256   1.084       .  S
