geometry optimzed in LAMMPS
_audit_creation_date              2020-11-30 
_audit_creation_method            'lammps2cif' 
_symmetry_space_group_name_H-M    'P1' 
_symmetry_Int_Tables_number       1 
_symmetry_cell_setting            triclinic 
loop_ 
_symmetry_equiv_pos_as_xyz 
  x,y,z 
_cell_length_a                    28.34808568 
_cell_length_b                    51.23416754086355 
_cell_length_c                    29.925397976479392 
_cell_angle_alpha                 90.05456308206726 
_cell_angle_beta                  90.02832156493426 
_cell_angle_gamma                 90.00439693402065 
loop_ 
_atom_site_label 
_atom_site_type_symbol 
_atom_site_fract_x 
_atom_site_fract_y 
_atom_site_fract_z 
_atom_site_charge 
C1          C  0.71733639  0.11210206  0.34828871     0.03500
C2          C  0.71725327  0.13971264  0.34753307     0.03500
C3          C  0.75333146  0.15330044  0.36994699    -0.17000
C4          C  0.78940966  0.14005345  0.39294859     0.03500
C5          C  0.78931544  0.11239555  0.39330056     0.03500
C6          C  0.75334952  0.09891739  0.37097535    -0.17000
H7          H  0.75331265  0.07771876  0.37136054     0.05500
H8          H  0.75332674  0.17448055  0.36948693     0.05500
Zr9        Zr  0.49953283  0.29333130  0.19941327     2.17500
O10         O  0.50580508  0.31305808  0.12560319    -0.50100
O11         O  0.48740460  0.33141966  0.24408588    -0.73300
O12         O  0.42540770  0.31401620  0.18135001    -0.80100
O13         O  0.63234416  0.28800329  0.20820779    -0.81800
O14         O  0.36714356  0.28822119  0.20962439    -0.77500
O15         O  0.57368462  0.31547067  0.18574711    -0.89100
O16         O  0.48481357  0.32100868  0.31791013    -0.75100
O17         O  0.44823654  0.28321255  0.25973221    -0.84500
O18         O  0.54876900  0.28426180  0.26191412    -0.84200
O19         O  0.45188253  0.25782465  0.17324666    -0.71000
O20         O  0.54836181  0.25788300  0.17572359    -0.83100
Zr21       Zr  0.50017395  0.20156465  0.27436455     2.26400
Zr22       Zr  0.40218589  0.24696982  0.23545184     2.06300
Zr23       Zr  0.59684616  0.24826140  0.23933546     2.10000
Zr24       Zr  0.49730023  0.27391680  0.32182745     1.78800
O25         O  0.65709108  0.23451822  0.18638402    -0.91900
O26         O  0.42843264  0.28153828  0.36870990    -0.39700
O27         O  0.54628926  0.23765440  0.30078926    -0.76400
O28         O  0.45106567  0.23702589  0.29878966    -0.95100
O29         O  0.44997627  0.21092802  0.21270750    -0.88400
O30         O  0.55096448  0.21210810  0.21385849    -0.91200
C31         C  0.48218896  0.33718880  0.28527024     1.02500
C32         C  0.61723839  0.30959849  0.19144997     1.15500
C33         C  0.38220216  0.30917479  0.19054431     1.06300
O34         O  0.33726363  0.25872933  0.28472880    -0.93400
O35         O  0.36702039  0.20772095  0.26861479    -0.89100
O36         O  0.42591653  0.18018988  0.29022661    -0.82300
C37         C  0.38235361  0.18630369  0.28583412     1.12900
O38         O  0.50250631  0.24453382  0.08071369    -0.95300
Zr39       Zr  0.50061562  0.22171237  0.15217309     1.88900
O40         O  0.50406078  0.16369878  0.22655830    -0.72000
O41         O  0.34739239  0.23287217  0.17750440    -0.51200
O42         O  0.43024404  0.20965225  0.11015347    -0.95900
O43         O  0.56635923  0.20752036  0.10555217    -0.53100
O44         O  0.49955668  0.17437134  0.15300732    -0.72500
C45         C  0.50297461  0.15783480  0.18485970     0.99800
O46         O  0.49867924  0.18134813  0.34819482    -0.61300
O47         O  0.65386050  0.26245936  0.29522351    -0.56100
O48         O  0.57475452  0.18147250  0.29458770    -0.92800
O49         O  0.63310085  0.20941253  0.27333682    -0.91200
O50         O  0.56266486  0.29343719  0.36279428    -0.91600
O51         O  0.50658191  0.25431151  0.39543110    -0.90400
C52         C  0.61826342  0.18795122  0.29086648     1.18700
H53         H  0.56767349  0.29922603  0.26998036     0.34600
H54         H  0.43172569  0.23144286  0.32356713     0.45500
H55         H  0.57146937  0.19767008  0.20655910     0.39000
H56         H  0.43309746  0.26331174  0.14801592     0.35500
H57         H  0.43868141  0.29498769  0.39042706     0.27300
H58         H  0.31579241  0.23540928  0.19091756     0.33200
H59         H  0.44067520  0.19559116  0.08970432     0.39100
H60         H  0.54758181  0.30549888  0.38435879     0.33600
H61         H  0.68428223  0.26324586  0.27904162     0.32500
H62         H  0.68700163  0.23541754  0.20341470     0.34100
H63         H  0.55293072  0.19401207  0.08556215     0.33100
H64         H  0.49326703  0.23654157  0.39228575     0.37100
H65         H  0.52518564  0.18943909  0.36473427     0.29800
H66         H  0.49547545  0.33137530  0.12961681     0.34100
H67         H  0.49709949  0.23099265  0.05764556     0.36900
H68         H  0.64580642  0.28092722  0.30129325     0.29500
H69         H  0.47028342  0.18850526  0.36306149     0.42400
H70         H  0.34956938  0.25575308  0.31526309     0.32500
H71         H  0.40581780  0.29072340  0.34900533     0.40100
H72         H  0.58754453  0.19777243  0.12585971     0.31900
H73         H  0.34943836  0.24639677  0.15398292     0.32000
H74         H  0.48047282  0.30478864  0.10773206     0.32300
Zr75       Zr  0.50358986  0.04306048  0.29391757     2.17500
O76         O  0.49727748  0.06175363  0.36856306    -0.50100
O77         O  0.51652158  0.08136210  0.25015818    -0.73300
O78         O  0.57722380  0.06418437  0.31224991    -0.80100
O79         O  0.37104767  0.03803470  0.28164254    -0.81800
O80         O  0.63576460  0.03856930  0.28395296    -0.77500
O81         O  0.42934790  0.06539858  0.30547776    -0.89100
O82         O  0.51814238  0.07121418  0.17615701    -0.75100
O83         O  0.55589491  0.03301299  0.23439593    -0.84500
O84         O  0.45547395  0.03413168  0.23048067    -0.84200
O85         O  0.55067649  0.00752762  0.32066253    -0.71000
O86         O  0.45405533  0.00767244  0.31650069    -0.83100
Zr87       Zr  0.50267644  0.45126320  0.21967917     2.26400
Zr88       Zr  0.60154443  0.99680769  0.25918805     2.06300
Zr89       Zr  0.40698284  0.99804666  0.25188198     2.10000
Zr90       Zr  0.50802982  0.02395573  0.17138065     1.78800
O91         O  0.34549548  0.48561455  0.30703949    -0.91900
O92         O  0.57770334  0.03365407  0.12676570    -0.39700
O93         O  0.45698980  0.48733975  0.19258880    -0.76400
O94         O  0.55214201  0.48648999  0.19517121    -0.95100
O95         O  0.55227233  0.46068093  0.28168412    -0.88400
O96         O  0.45148313  0.46211840  0.27972548    -0.91200
C97         C  0.52110555  0.08728251  0.20898819     1.02500
C98         C  0.38594680  0.05964758  0.29856915     1.15500
C99         C  0.62045240  0.05955646  0.30284448     1.06300
O100        O  0.66839324  0.00795080  0.21188337    -0.93400
O101        O  0.63547145  0.45698785  0.22594591    -0.89100
O102        O  0.57652700  0.42960521  0.20386775    -0.82300
C103        C  0.62007593  0.43561155  0.20857468     1.12900
O104        O  0.49904261  0.49513437  0.41284263    -0.95300
Zr105      Zr  0.50118073  0.47180877  0.34177943     1.88900
O106        O  0.49930873  0.41348003  0.26766712    -0.72000
O107        O  0.65362448  0.48218508  0.31807260    -0.51200
O108        O  0.57016968  0.45888637  0.38502481    -0.95900
O109        O  0.43444735  0.45815508  0.38755307    -0.53100
O110        O  0.50134724  0.42447614  0.34122788    -0.72500
C111        C  0.49923064  0.40779538  0.30944249     0.99800
O112        O  0.50407411  0.43105503  0.14577994    -0.61300
O113        O  0.35067929  0.01116191  0.19464040    -0.56100
O114        O  0.42834551  0.43091555  0.20031693    -0.92800
O115        O  0.36996947  0.45892279  0.22136786    -0.91200
O116        O  0.44157626  0.04103386  0.12888747    -0.91600
O117        O  0.50505992  0.00486398  0.09686208    -0.90400
C118        C  0.38488755  0.43732742  0.20435629     1.18700
H119        H  0.43673957  0.04908638  0.22207425     0.34600
H120        H  0.57162222  0.48077357  0.17056605     0.45500
H121        H  0.43090057  0.44772738  0.28704894     0.39000
H122        H  0.56897830  0.01298824  0.34624883     0.35500
H123        H  0.56737310  0.04737011  0.10562213     0.27300
H124        H  0.68549563  0.48345520  0.30472323     0.33200
H125        H  0.55827564  0.44584288  0.40666051     0.39100
H126        H  0.45554100  0.05430232  0.10882008     0.33600
H127        H  0.32015324  0.01255816  0.21052450     0.32500
H128        H  0.31536754  0.48820567  0.29089332     0.34100
H129        H  0.44744552  0.44485161  0.40814501     0.33100
H130        H  0.51555587  0.98660191  0.10101612     0.37100
H131        H  0.47702542  0.43878539  0.12955386     0.29800
H132        H  0.50737980  0.08015667  0.36530850     0.34100
H133        H  0.50351010  0.48169586  0.43621785     0.36900
H134        H  0.35920973  0.02940474  0.18735378     0.29500
H135        H  0.53198098  0.43859925  0.13066441     0.42400
H136        H  0.65597291  0.00687357  0.18101308     0.32500
H137        H  0.59931114  0.04276956  0.14758399     0.40100
H138        H  0.41364558  0.44820204  0.36714752     0.31900
H139        H  0.65273764  0.49632812  0.34061460     0.32000
H140        H  0.52278772  0.05334664  0.38598991     0.32300
C141        C  0.28681339  0.11024000  0.34572448     0.03500
C142        C  0.28663059  0.13779813  0.34492954     0.03500
C143        C  0.25224312  0.15138792  0.36932090    -0.17000
C144        C  0.21753071  0.13809869  0.39377042     0.03500
C145        C  0.21661718  0.11051543  0.39292614     0.03500
C146        C  0.25154775  0.09697250  0.36929893    -0.17000
H147        H  0.25131933  0.07577990  0.36929970     0.05500
H148        H  0.25253653  0.17257452  0.36931710     0.05500
Zr149      Zr  0.00587207  0.20402839  0.46235763     2.17500
O150        O  0.00329848  0.18284526  0.38935306    -0.50900
O151        O  0.00339295  0.16658941  0.51061562    -0.73300
O152        O  0.07995433  0.18272862  0.44563902    -0.80100
O153        O  0.87323999  0.21105839  0.46475098    -0.81800
O154        O  0.13925271  0.20923226  0.46979002    -0.77500
O155        O  0.93171395  0.18361310  0.44196781    -0.89100
O156        O  0.00166280  0.18452469  0.08557970    -0.75100
O157        O  0.05629516  0.21333471  0.52393268    -0.84500
O158        O  0.95272734  0.21911107  0.02144446    -0.84200
O159        O  0.05494461  0.23932331  0.43747591    -0.71000
O160        O  0.95954492  0.24011586  0.43663750    -0.83100
Zr161      Zr  0.00366228  0.30158477  0.02515959     2.26400
Zr162      Zr  0.10411094  0.24922469  0.50066229     2.06300
Zr163      Zr  0.90918634  0.25022452  0.49851688     2.10000
Zr164      Zr  0.00400369  0.23168707  0.08059169     1.78800
O165        O  0.85031126  0.26457486  0.44464901    -0.91900
O166        O  0.07237591  0.21855674  0.12447676    -0.39700
O167        O  0.95599235  0.26709427  0.05456237    -0.76400
O168        O  0.05164354  0.26684295  0.05363560    -0.95100
O169        O  0.05761623  0.28547396  0.47744892    -0.88400
O170        O  0.95708404  0.28625865  0.47567562    -0.91200
C171        C  0.99961434  0.16671951  0.05567506     1.02500
C172        C  0.88814997  0.18971077  0.44674771     1.15500
C173        C  0.12357727  0.18813857  0.45162577     1.06300
O174        O  0.15906667  0.24098334  0.04751418    -0.93400
O175        O  0.13668969  0.29387559  0.02094925    -0.89100
O176        O  0.07850504  0.32281890  0.03873613    -0.82300
C177        C  0.12187486  0.31608928  0.03549519     1.12900
O178        O  0.00422588  0.25563346  0.34209832    -0.95300
Zr179      Zr  0.00852494  0.27634088  0.41538172     1.88900
O180        O  0.00026101  0.33796924  0.97460242    -0.72000
O181        O  0.16586969  0.26214012  0.44854193    -0.51200
O182        O  0.07933911  0.28659370  0.37264561    -0.95900
O183        O  0.94300341  0.29342055  0.37150625    -0.53100
O184        O  0.01706523  0.32375308  0.41970493    -0.72500
C185        C  0.02061906  0.33980070  0.45253347     0.99800
O186        O  0.00677818  0.32421623  0.09695354    -0.61300
O187        O  0.84692243  0.24190614  0.04865533    -0.56100
O188        O  0.92927071  0.32229872  0.04364004    -0.92800
O189        O  0.87061562  0.29391685  0.02477384    -0.91200
O190        O  0.93563415  0.22269716  0.12735695    -0.91600
O191        O  0.00907871  0.25511453  0.15128761    -0.90400
C192        C  0.88575361  0.31575590  0.04054194     1.18700
H193        H  0.93253269  0.20496396  0.03085539     0.34600
H194        H  0.07107741  0.27316518  0.07786365     0.45500
H195        H  0.93789654  0.30114369  0.46788570     0.39000
H196        H  0.07403832  0.23370399  0.41253605     0.35500
H197        H  0.05920560  0.20833161  0.14961314     0.27300
H198        H  0.19439729  0.25268832  0.45868875     0.33200
H199        H  0.07059648  0.30182345  0.35405399     0.39100
H200        H  0.94731854  0.21043806  0.15040346     0.33600
H201        H  0.81675742  0.24183526  0.03196481     0.32500
H202        H  0.81965706  0.26126206  0.45943812     0.34100
H203        H  0.93369934  0.30989883  0.38638062     0.33100
H204        H  0.99071008  0.27129295  0.14640866     0.37100
H205        H  0.97898878  0.31791500  0.11382173     0.29800
H206        H  0.01326414  0.16457412  0.39458326     0.34100
H207        H  0.00862267  0.26989047  0.32017266     0.36900
H208        H  0.85321920  0.22328678  0.05515183     0.29500
H209        H  0.03387124  0.31637957  0.11296328     0.42400
H210        H  0.15326674  0.22217551  0.05271651     0.32500
H211        H  0.08882280  0.20547112  0.10575639     0.40100
H212        H  0.91660702  0.28129277  0.37764435     0.31900
H213        H  0.15729560  0.25374790  0.41985640     0.32000
H214        H  0.02935774  0.19079024  0.37203617     0.32300
Zr215      Zr  0.00063822  0.45741716  0.03991925     2.17500
O216        O  0.00708196  0.43793251  0.11393230    -0.50100
O217        O  0.98800651  0.41925191  0.99507420    -0.73300
O218        O  0.92635161  0.43727053  0.05967690    -0.80100
O219        O  0.13365428  0.46367792  0.03149504    -0.81800
O220        O  0.86766206  0.46334651  0.03285427    -0.77500
O221        O  0.07540330  0.43587457  0.05377950    -0.89100
O222        O  0.99486812  0.42779908  0.40416742    -0.75100
O223        O  0.95051024  0.46339177  0.46622284    -0.84500
O224        O  0.05171901  0.46413114  0.46597897    -0.84200
O225        O  0.95305915  0.49296365  0.06596182    -0.71000
O226        O  0.04936418  0.49301014  0.06341218    -0.83100
Zr227      Zr  0.00119500  0.04229897  0.44801422     2.26400
Zr228      Zr  0.90352742  0.99870692  0.49198791     2.06300
Zr229      Zr  0.09878319  0.99910402  0.49199619     2.10000
Zr230      Zr  0.00061436  0.47493446  0.40560203     1.78800
O231        O  0.15820216  0.01850715  0.05470508    -0.91900
O232        O  0.93311429  0.46552160  0.35779174    -0.39700
O233        O  0.04964090  0.00594035  0.42780979    -0.76400
O234        O  0.95274901  0.00581730  0.42777495    -0.95100
O235        O  0.95070600  0.04084970  0.02120837    -0.88400
O236        O  0.05094997  0.03579176  0.51106498    -0.91200
C237        C  0.99983958  0.41064684  0.43480512     1.02500
C238        C  0.11887820  0.44204940  0.04836523     1.15500
C239        C  0.88291169  0.44245033  0.05195014     1.06300
O240        O  0.84436180  0.48594573  0.43700880    -0.93400
O241        O  0.86972764  0.03977074  0.46307927    -0.89100
O242        O  0.92783278  0.06360099  0.42987523    -0.82300
C243        C  0.88490371  0.05985926  0.44138433     1.12900
O244        O  0.01507667  0.01527124  0.15712229    -0.95300
Zr245      Zr  0.00074151  0.03429830  0.08365554     1.88900
O246        O  0.99005047  0.08200875  0.48831246    -0.72000
O247        O  0.84488994  0.01709596  0.05888993    -0.51200
O248        O  0.93139162  0.04341301  0.12918649    -0.95900
O249        O  0.06248010  0.05764118  0.12417142    -0.53100
O250        O  0.98735451  0.08089160  0.07349481    -0.72500
C251        C  0.98364469  0.09541670  0.03877044     0.99800
O252        O  0.00340217  0.05823635  0.37132049    -0.61300
O253        O  0.15895419  0.48707431  0.43941608    -0.56100
O254        O  0.07495238  0.06454852  0.43304971    -0.92800
O255        O  0.13397092  0.03874324  0.46000294    -0.91200
O256        O  0.06858935  0.45953844  0.36339962    -0.91600
O257        O  0.00724615  0.49714710  0.33393366    -0.90400
C258        C  0.11847876  0.05962653  0.44102091     1.18700
H259        H  0.07192830  0.44974087  0.45769614     0.34600
H260        H  0.93356950  0.01011909  0.40213157     0.45500
H261        H  0.07025423  0.05637808  0.02681086     0.39000
H262        H  0.93443647  0.48751541  0.09130768     0.35500
H263        H  0.94569274  0.45390681  0.33416684     0.27300
H264        H  0.81433254  0.01117226  0.04644039     0.33200
H265        H  0.93902391  0.05981424  0.14516091     0.39100
H266        H  0.05525154  0.44785733  0.34023591     0.33600
H267        H  0.18858346  0.48749099  0.45693687     0.32500
H268        H  0.18858495  0.01446475  0.03993157     0.34100
H269        H  0.04539904  0.06858634  0.14614513     0.33100
H270        H  0.98467301  0.51184921  0.33572441     0.37100
H271        H  0.03084161  0.04934719  0.35762418     0.29800
H272        H  0.99663336  0.41961713  0.11017662     0.34100
H273        H  0.00357408  0.02828044  0.17904015     0.36900
H274        H  0.15315995  0.46830332  0.43375360     0.29500
H275        H  0.97572618  0.05015918  0.35659391     0.42400
H276        H  0.85031965  0.46712993  0.43199813     0.32500
H277        H  0.91261748  0.45407892  0.37602319     0.40100
H278        H  0.07578403  0.07030815  0.10263870     0.31900
H279        H  0.85044916  0.00552174  0.08482883     0.32000
H280        H  0.98190766  0.44632009  0.13182477     0.32300
C281        C  0.28715876  0.36202516  0.14274388     0.03500
C282        C  0.28715473  0.38955580  0.14627880     0.03500
C283        C  0.25222241  0.40395903  0.12399422    -0.17000
C284        C  0.21762320  0.39157996  0.09799346     0.03500
C285        C  0.21821171  0.36411671  0.09394327     0.03500
C286        C  0.25280875  0.34971504  0.11647844    -0.17000
H287        H  0.25295757  0.32858842  0.11357498     0.05500
H288        H  0.25201516  0.42508135  0.12685019     0.05500
C289        C  0.71649332  0.38822694  0.14848031     0.03500
C290        C  0.71605563  0.36077594  0.14405073     0.03500
C291        C  0.75133274  0.34854324  0.11871449    -0.17000
C292        C  0.78678485  0.36308017  0.09748529     0.03500
C293        C  0.78667674  0.39057306  0.10135357     0.03500
C294        C  0.75162696  0.40276684  0.12692393    -0.17000
H295        H  0.75168244  0.42387825  0.13008848     0.05500
H296        H  0.75127138  0.32743463  0.11557658     0.05500
C297        C  0.82171828  0.40713210  0.08050311    -0.12000
C298        C  0.84908095  0.42319445  0.06620132    -0.13600
C299        C  0.15349831  0.42321553  0.06270809    -0.12000
C300        C  0.18200874  0.40777625  0.07707426    -0.13600
C301        C  0.97243632  0.12299755  0.04316365    -0.15200
C302        C  0.99646766  0.13929514  0.06963385    -0.30400
H303        H  0.95124612  0.13107720  0.01614355     0.13800
H304        H  0.02203791  0.12465780  0.59038210     0.14400
C305        C  0.03051145  0.36731559  0.44472248    -0.15200
C306        C  0.00132763  0.38294212  0.42205107    -0.30400
H307        H  0.05565234  0.37610803  0.46777499     0.13800
H308        H  0.94917726  0.37721036  0.97130492     0.14400
C309        C  0.82293998  0.34881907  0.07354260    -0.12000
C310        C  0.85152295  0.33423530  0.05688684    -0.13600
C311        C  0.15609496  0.33474419  0.05108296    -0.12000
C312        C  0.18357843  0.34965477  0.06847343    -0.13600
C313        C  0.18364455  0.15366545  0.41831509    -0.12000
C314        C  0.15702429  0.16915373  0.43551045    -0.13600
C315        C  0.18027803  0.09507567  0.41420615    -0.12000
C316        C  0.15214460  0.07921337  0.42777634    -0.13600
C317        C  0.65388885  0.41714304  0.19162934    -0.12000
C318        C  0.68143814  0.40248669  0.17373436    -0.13600
C319        C  0.32262274  0.40403857  0.17083664    -0.12000
C320        C  0.35062377  0.41888617  0.18778660    -0.13600
C321        C  0.35158718  0.07899188  0.31113103    -0.12000
C322        C  0.32301498  0.09463947  0.32458099    -0.13600
C323        C  0.50595038  0.12988187  0.17403532    -0.15200
C324        C  0.53149196  0.11473935  0.20122949    -0.30400
H325        H  0.48309008  0.12155810  0.14860363     0.13800
H326        H  0.55350874  0.12395960  0.22655635     0.14400
C327        C  0.47124061  0.36458111  0.29316442    -0.15200
C328        C  0.49639952  0.37987358  0.32046887    -0.30400
H329        H  0.44932549  0.37370473  0.26768640     0.13800
H330        H  0.51919868  0.37169680  0.34605937     0.14400
C331        C  0.68006256  0.34442422  0.16403543    -0.12000
C332        C  0.65155343  0.32876609  0.17770923    -0.13600
C333        C  0.34853724  0.32893048  0.17800171    -0.12000
C334        C  0.32170238  0.34543231  0.16425030    -0.13600
C335        C  0.34846489  0.16786017  0.30283914    -0.12000
C336        C  0.32111202  0.15295911  0.32044615    -0.13600
C337        C  0.85181048  0.07996523  0.42866912    -0.12000
C338        C  0.82508798  0.09656737  0.41487640    -0.13600
C339        C  0.85374039  0.17107476  0.43039037    -0.12000
C340        C  0.82554050  0.15571852  0.41478582    -0.13600
C341        C  0.65386178  0.07961579  0.31475860    -0.12000
C342        C  0.68119173  0.09611976  0.32771151    -0.13600
C343        C  0.68110917  0.15492000  0.32490757    -0.12000
C344        C  0.65273139  0.16974558  0.30826118    -0.13600
C345        C  0.71702619  0.11276663  0.85051498     0.03500
C346        C  0.71672194  0.14029024  0.84837316     0.03500
C347        C  0.75147711  0.15450410  0.87131420    -0.17000
C348        C  0.78665404  0.14185057  0.89620763     0.03500
C349        C  0.78682126  0.11426973  0.89817307     0.03500
C350        C  0.75198847  0.10013826  0.87541677    -0.17000
H351        H  0.75222949  0.07896271  0.87693004     0.05500
H352        H  0.75123136  0.17566556  0.86964439     0.05500
Zr353      Zr  0.50264479  0.29602545  0.70900952     2.17500
O354        O  0.50571791  0.31958363  0.63824947    -0.50100
O355        O  0.50440296  0.33162831  0.76177430    -0.73300
O356        O  0.42863403  0.31792730  0.69408415    -0.80100
O357        O  0.63526940  0.28819498  0.71061640    -0.81800
O358        O  0.36932413  0.29026415  0.71395157    -0.77500
O359        O  0.57714093  0.31696201  0.69222026    -0.89100
O360        O  0.49664688  0.31790293  0.83352936    -0.75100
O361        O  0.45213143  0.28423031  0.76908389    -0.84500
O362        O  0.55309377  0.28328952  0.76854202    -0.84200
O363        O  0.45377500  0.26171051  0.67987080    -0.71000
O364        O  0.54860246  0.26082927  0.67904867    -0.83100
Zr365      Zr  0.50109478  0.20105070  0.77279152     2.26400
Zr366      Zr  0.40441674  0.24935816  0.74135620     2.06300
Zr367      Zr  0.59882531  0.24805951  0.73954370     2.10000
Zr368      Zr  0.50261163  0.27088889  0.82833641     1.78800
O369        O  0.65387356  0.23368734  0.68215680    -0.91900
O370        O  0.43579338  0.27913745  0.87750228    -0.39700
O371        O  0.54971571  0.23548312  0.80107065    -0.76400
O372        O  0.45404539  0.23597558  0.80209957    -0.95100
O373        O  0.44976239  0.21349051  0.71365366    -0.88400
O374        O  0.55108407  0.21302860  0.71243772    -0.91200
C375        C  0.50095781  0.33573452  0.80396828     1.02500
C376        C  0.62056968  0.31037197  0.69584382     1.15500
C377        C  0.38497071  0.31209147  0.69851037     1.06300
O378        O  0.34442147  0.26141654  0.79582213    -0.93400
O379        O  0.36820311  0.20963279  0.77152140    -0.89100
O380        O  0.42616577  0.18037260  0.78837177    -0.82300
C381        C  0.38287730  0.18741103  0.78607149     1.12900
O382        O  0.49821399  0.24958113  0.58310421    -0.95300
Zr383      Zr  0.49966639  0.22547575  0.65334082     1.88900
O384        O  0.50264383  0.16443567  0.72236733    -0.72000
O385        O  0.34666400  0.23626359  0.68543016    -0.51200
O386        O  0.42937483  0.21386983  0.61081095    -0.95900
O387        O  0.56585761  0.21352488  0.60553029    -0.53100
O388        O  0.49828290  0.17782562  0.65012990    -0.72500
C389        C  0.50113061  0.16006147  0.68019976     0.99800
O390        O  0.50000974  0.17858276  0.84471705    -0.61300
O391        O  0.66107721  0.25998226  0.79186808    -0.56100
O392        O  0.57565256  0.18044569  0.79085236    -0.92800
O393        O  0.63424976  0.20894030  0.77240327    -0.91200
O394        O  0.57184844  0.28473793  0.87031062    -0.91600
O395        O  0.50796789  0.24690290  0.89838257    -0.90400
C396        C  0.61910756  0.18717924  0.78836935     1.18700
H397        H  0.57335565  0.29744333  0.77786669     0.34600
H398        H  0.43501457  0.22975448  0.82665258     0.45500
H399        H  0.57086063  0.19860752  0.70343607     0.39000
H400        H  0.43475294  0.26831348  0.65560444     0.35500
H401        H  0.44863029  0.29026600  0.90169518     0.27300
H402        H  0.31628688  0.24314436  0.69674240     0.33200
H403        H  0.44024998  0.20077491  0.58874097     0.39100
H404        H  0.55904976  0.29440359  0.89628064     0.33600
H405        H  0.69027138  0.26021834  0.77372379     0.32500
H406        H  0.68545968  0.23652133  0.69543238     0.34100
H407        H  0.55340696  0.19967280  0.58566577     0.33100
H408        H  0.53195875  0.23324065  0.89283825     0.37100
H409        H  0.52751370  0.18548218  0.86136843     0.29800
H410        H  0.49575585  0.33765915  0.64523111     0.34100
H411        H  0.49566885  0.23624712  0.55924923     0.36900
H412        H  0.65512256  0.27853301  0.79924183     0.29500
H413        H  0.47260748  0.18593131  0.86092407     0.42400
H414        H  0.35077561  0.27998370  0.80275903     0.32500
H415        H  0.41495486  0.29091147  0.86024037     0.40100
H416        H  0.58842000  0.20438262  0.62531033     0.31900
H417        H  0.35378022  0.24709478  0.65890316     0.32000
H418        H  0.47973619  0.31224245  0.62001704     0.32300
Zr419      Zr  0.50312947  0.04635096  0.78856695     2.17500
O420        O  0.49727593  0.06708852  0.86173286    -0.50100
O421        O  0.51433811  0.08392828  0.74196979    -0.73300
O422        O  0.57742901  0.06673019  0.80744226    -0.80100
O423        O  0.37030429  0.03978520  0.78173937    -0.81800
O424        O  0.63597994  0.04034429  0.78124096    -0.77500
O425        O  0.42852398  0.06808679  0.80228207    -0.89100
O426        O  0.51570303  0.07239721  0.66856931    -0.75100
O427        O  0.55406297  0.03559662  0.72820372    -0.84500
O428        O  0.45328538  0.03600508  0.72702048    -0.84200
O429        O  0.55133569  0.01121744  0.81532120    -0.71000
O430        O  0.45526794  0.01089277  0.81411002    -0.83100
Zr431      Zr  0.50585855  0.45461365  0.70828109     2.26400
Zr432      Zr  0.60072972  0.99969702  0.75319171     2.06300
Zr433      Zr  0.40636551  0.99990519  0.75138872     2.10000
Zr434      Zr  0.50428909  0.02505074  0.66707837     1.78800
O435        O  0.35016283  0.48382329  0.80493155    -0.91900
O436        O  0.57155323  0.03323400  0.61841712    -0.39700
O437        O  0.45824658  0.49118239  0.68732431    -0.76400
O438        O  0.55482713  0.49093738  0.68866040    -0.95100
O439        O  0.55523713  0.46151070  0.77128701    -0.88400
O440        O  0.45505285  0.46162379  0.77040952    -0.91200
C441        C  0.51877405  0.08913083  0.70042890     1.02500
C442        C  0.38504856  0.06174643  0.79747916     1.15500
C443        C  0.62082336  0.06140939  0.79988190     1.06300
O444        O  0.66178853  0.01167196  0.69979208    -0.93400
O445        O  0.63821132  0.45859262  0.72096098    -0.89100
O446        O  0.57991725  0.43413327  0.68926868    -0.82300
C447        C  0.62313299  0.43854945  0.69912596     1.12900
O448        O  0.49529307  0.48825922  0.90709817    -0.95300
Zr449      Zr  0.50474454  0.46873693  0.83329391     1.88900
O450        O  0.51602070  0.41484585  0.74894605    -0.72000
O451        O  0.65722768  0.48371722  0.81181833    -0.51200
O452        O  0.57375892  0.45780271  0.87811604    -0.95900
O453        O  0.44028918  0.44887268  0.87518549    -0.53100
O454        O  0.51411376  0.42177916  0.82403691    -0.72500
C455        C  0.51854192  0.40717666  0.78944190     0.99800
O456        O  0.50401835  0.43834444  0.63168860    -0.61300
O457        O  0.34741956  0.01316204  0.69665279    -0.56100
O458        O  0.43160413  0.43335265  0.69120380    -0.92800
O459        O  0.37276735  0.46006184  0.71591861    -0.91200
O460        O  0.43647194  0.04236536  0.62687442    -0.91600
O461        O  0.49538374  0.00450036  0.59412792    -0.90400
C462        C  0.38803395  0.43908179  0.69716587     1.18700
H463        H  0.43393174  0.05070964  0.71857177     0.34600
H464        H  0.57435249  0.48648584  0.66333744     0.45500
H465        H  0.43556342  0.44652290  0.77595501     0.39000
H466        H  0.57032315  0.01705149  0.84019961     0.35500
H467        H  0.55993711  0.04607706  0.59628005     0.27300
H468        H  0.68868984  0.48404926  0.79746937     0.33200
H469        H  0.56439394  0.44209925  0.89521567     0.39100
H470        H  0.44994041  0.05510966  0.60554472     0.33600
H471        H  0.31760782  0.01437425  0.71375398     0.32500
H472        H  0.31957236  0.48503635  0.78908902     0.34100
H473        H  0.45548437  0.43525279  0.89372045     0.33100
H474        H  0.51087503  0.98728116  0.59727072     0.37100
H475        H  0.47763574  0.44785072  0.61735989     0.29800
H476        H  0.50659235  0.08549600  0.85684857     0.34100
H477        H  0.50240756  0.47421172  0.92877559     0.36900
H478        H  0.35540650  0.03146836  0.68927179     0.29500
H479        H  0.53257728  0.44564555  0.61734018     0.42400
H480        H  0.65642650  0.03042406  0.69368251     0.32500
H481        H  0.59398267  0.04322149  0.63716030     0.40100
H482        H  0.42155268  0.43900664  0.85295991     0.31900
H483        H  0.65817843  0.49816499  0.83378431     0.32000
H484        H  0.52328168  0.05948206  0.87958163     0.32300
C485        C  0.28579019  0.11216303  0.84644800     0.03500
C486        C  0.28569548  0.13970929  0.84452953     0.03500
C487        C  0.25095260  0.15373313  0.86776884    -0.17000
C488        C  0.21600312  0.14091184  0.89264246     0.03500
C489        C  0.21554785  0.11331784  0.89378977     0.03500
C490        C  0.25050797  0.09933361  0.87079858    -0.17000
H491        H  0.25034442  0.07815859  0.87200176     0.05500
H492        H  0.25119195  0.17490783  0.86656499     0.05500
Zr493      Zr  0.00247463  0.20661159  0.96114388     2.17500
O494        O  0.99892274  0.18236246  0.89104921    -0.50900
O495        O  0.00005281  0.17084953  0.01338744    -0.73300
O496        O  0.07688572  0.18519845  0.94499486    -0.80100
O497        O  0.86952076  0.21441769  0.96371446    -0.81800
O498        O  0.13602875  0.21349496  0.96262755    -0.77500
O499        O  0.92775414  0.18611702  0.94351239    -0.89100
O500        O  0.00833294  0.17703481  0.58419666    -0.75100
O501        O  0.05375233  0.21862587  0.02054124    -0.84500
O502        O  0.95547691  0.21418219  0.52341000    -0.84200
O503        O  0.05039098  0.24106892  0.93124465    -0.71000
O504        O  0.95549254  0.24167568  0.93230544    -0.83100
Zr505      Zr  0.00655150  0.29546853  0.53795657     2.26400
Zr506      Zr  0.10049047  0.25372929  0.99216386     2.06300
Zr507      Zr  0.90611851  0.25427883  0.99360181     2.10000
Zr508      Zr  0.00589933  0.22416415  0.58483392     1.78800
O509        O  0.84786665  0.26790269  0.93861032    -0.91900
O510        O  0.07366476  0.21289278  0.63107623    -0.39700
O511        O  0.95775479  0.26018869  0.56198833    -0.76400
O512        O  0.05477087  0.26001576  0.56315289    -0.95100
O513        O  0.05408270  0.28934015  0.96521382    -0.88400
O514        O  0.95294396  0.28930036  0.96541397    -0.91200
C515        C  0.00484835  0.16062717  0.55220184     1.02500
C516        C  0.88429659  0.19252805  0.94774723     1.15500
C517        C  0.12052766  0.19148480  0.94782321     1.06300
O518        O  0.16099233  0.23668303  0.55774603    -0.93400
O519        O  0.13890163  0.29017696  0.52792854    -0.89100
O520        O  0.08047486  0.31638650  0.55500374    -0.82300
C521        C  0.12371367  0.31125854  0.54655222     1.12900
O522        O  0.00620120  0.25293039  0.83524065    -0.95300
Zr523      Zr  0.00353526  0.27705510  0.90553125     1.88900
O524        O  0.01747564  0.33378767  0.49377491    -0.72000
O525        O  0.15950612  0.26690627  0.93750896    -0.51200
O526        O  0.07429073  0.29004395  0.86502081    -0.95900
O527        O  0.93760643  0.28755695  0.85640890    -0.53100
O528        O  0.00184807  0.32465271  0.90219116    -0.72500
C529        C  0.99982237  0.34236895  0.93244072     0.99800
O530        O  0.00347830  0.31415050  0.61285439    -0.61300
O531        O  0.85003619  0.23665348  0.55274379    -0.56100
O532        O  0.93228454  0.31747274  0.55190873    -0.92800
O533        O  0.87364700  0.28981207  0.52994335    -0.91200
O534        O  0.93839486  0.20943511  0.62831615    -0.91600
O535        O  0.00077664  0.24587760  0.65716258    -0.90400
C536        C  0.88873770  0.31143369  0.54663819     1.18700
H537        H  0.93525850  0.19966099  0.53091827     0.34600
H538        H  0.07401435  0.26545858  0.58811944     0.45500
H539        H  0.93273813  0.30355158  0.95650044     0.39000
H540        H  0.06910647  0.23456348  0.90668035     0.35500
H541        H  0.06080263  0.20121054  0.65442653     0.27300
H542        H  0.18906992  0.25847842  0.94763613     0.33200
H543        H  0.06308802  0.30240069  0.84191023     0.39100
H544        H  0.95189762  0.19773717  0.65133274     0.33600
H545        H  0.81978300  0.23731633  0.53623870     0.32500
H546        H  0.81706577  0.26479704  0.95325551     0.34100
H547        H  0.94958309  0.30153550  0.83659507     0.33100
H548        H  0.02385607  0.26034371  0.65566160     0.37100
H549        H  0.97766709  0.30459961  0.62799032     0.29800
H550        H  0.00904268  0.16437462  0.89843838     0.34100
H551        H  0.01136732  0.26615824  0.81164127     0.36900
H552        H  0.85592214  0.21781117  0.55746908     0.29500
H553        H  0.03244716  0.30790957  0.62793268     0.42400
H554        H  0.15845470  0.21744525  0.55963639     0.32500
H555        H  0.09312892  0.20132334  0.61203899     0.40100
H556        H  0.91426521  0.29637625  0.87582590     0.31900
H557        H  0.15090105  0.25750497  0.90976210     0.32000
H558        H  0.02465955  0.18956002  0.87239332     0.32300
Zr559      Zr  0.00163080  0.45286575  0.52660874     2.17500
O560        O  0.00430008  0.43037147  0.59838761    -0.50100
O561        O  0.00387903  0.41570457  0.47667869    -0.73300
O562        O  0.92732095  0.43172699  0.54344840    -0.80100
O563        O  0.13438100  0.46082088  0.52481627    -0.81800
O564        O  0.86812262  0.45921232  0.52258837    -0.77500
O565        O  0.07625820  0.43286473  0.54654552    -0.89100
O566        O  0.98665721  0.42947604  0.92114669    -0.75100
O567        O  0.94902122  0.46747809  0.97981295    -0.84500
O568        O  0.04986034  0.46666374  0.97746471    -0.84200
O569        O  0.95329962  0.48803861  0.55370870    -0.71000
O570        O  0.04787957  0.48883738  0.55357201    -0.83100
Zr571      Zr  0.00044410  0.04789097  0.95860744     2.26400
Zr572      Zr  0.90307316  0.00409218  0.00319303     2.06300
Zr573      Zr  0.09834165  0.00430596  0.00165166     2.10000
Zr574      Zr  0.99805393  0.47672879  0.91764075     1.78800
O575        O  0.15668202  0.01366643  0.54671143    -0.91900
O576        O  0.92948620  0.46826741  0.87075187    -0.39700
O577        O  0.04876665  0.01158713  0.93794342    -0.76400
O578        O  0.95172414  0.01148762  0.93859680    -0.95100
O579        O  0.95121457  0.03528534  0.51047073    -0.88400
O580        O  0.05094580  0.04121621  0.02114683    -0.91200
C581        C  0.98334792  0.41335040  0.95381622     1.02500
C582        C  0.11973049  0.43927042  0.54219673     1.15500
C583        C  0.88369537  0.43770413  0.53924211     1.06300
O584        O  0.84101704  0.49188412  0.95135827    -0.93400
O585        O  0.86840936  0.04424449  0.97261812    -0.89100
O586        O  0.92642171  0.06833845  0.93974123    -0.82300
C587        C  0.88340300  0.06419875  0.95060181     1.12900
O588        O  0.00571057  0.00930582  0.64770766    -0.95300
Zr589      Zr  0.00066129  0.02846158  0.57328378     1.88900
O590        O  0.98819709  0.08776890  0.99840624    -0.72000
O591        O  0.84235212  0.01219716  0.54433719    -0.51200
O592        O  0.93035971  0.04060082  0.61519419    -0.95900
O593        O  0.06466261  0.04764620  0.61682685    -0.53100
O594        O  0.99304468  0.07527477  0.56339310    -0.72500
C595        C  0.98820914  0.08974838  0.52878632     0.99800
O596        O  0.00306343  0.06333864  0.88162450    -0.61300
O597        O  0.15543172  0.48939590  0.94440727    -0.56100
O598        O  0.07429404  0.06981298  0.94259485    -0.92800
O599        O  0.13342102  0.04326716  0.96720249    -0.91200
O600        O  0.06444233  0.45826827  0.87675049    -0.91600
O601        O  0.00551699  0.49666580  0.84413602    -0.90400
C602        C  0.11794503  0.06428239  0.94861418     1.18700
H603        H  0.06899580  0.45178103  0.96945734     0.34600
H604        H  0.93230197  0.01582480  0.91313012     0.45500
H605        H  0.06993211  0.05102627  0.51712326     0.39000
H606        H  0.93451429  0.48207717  0.57860803     0.35500
H607        H  0.94080655  0.45579993  0.84783711     0.27300
H608        H  0.81342320  0.00323961  0.53386606     0.33200
H609        H  0.93996397  0.05597659  0.63308610     0.39100
H610        H  0.04994244  0.44634728  0.85459263     0.33600
H611        H  0.18526362  0.48761757  0.96135469     0.32500
H612        H  0.18726147  0.01276000  0.53081689     0.34100
H613        H  0.04981281  0.06210463  0.63370787     0.33100
H614        H  0.98934610  0.51371317  0.84694586     0.37100
H615        H  0.02995816  0.05392260  0.86798045     0.29800
H616        H  0.99464719  0.41215613  0.59208613     0.34100
H617        H  0.00049117  0.02388190  0.66888429     0.36900
H618        H  0.14652350  0.47127037  0.93661827     0.29500
H619        H  0.97493375  0.05559981  0.86713813     0.42400
H620        H  0.84690688  0.47327928  0.94437915     0.32500
H621        H  0.90810902  0.45782191  0.88980676     0.40100
H622        H  0.08532037  0.05643157  0.59484654     0.31900
H623        H  0.85036040  0.00347499  0.57285113     0.32000
H624        H  0.97810845  0.43785693  0.61614620     0.32300
C625        C  0.28941960  0.36261911  0.64404369     0.03500
C626        C  0.28951606  0.39018627  0.64366594     0.03500
C627        C  0.25420972  0.40365209  0.62013843    -0.17000
C628        C  0.21882264  0.39024423  0.59669851     0.03500
C629        C  0.21930610  0.36263473  0.59663627     0.03500
C630        C  0.25444021  0.34923636  0.62029676    -0.17000
H631        H  0.25443535  0.32804147  0.62037967     0.05500
H632        H  0.25425853  0.42483716  0.62012554     0.05500
C633        C  0.71897424  0.38815650  0.64515033     0.03500
C634        C  0.71906993  0.36054317  0.64511174     0.03500
C635        C  0.75451554  0.34721575  0.62167915    -0.17000
C636        C  0.78942099  0.36073101  0.59788414     0.03500
C637        C  0.78863983  0.38828503  0.59709753     0.03500
C638        C  0.75364476  0.40163218  0.62100179    -0.17000
H639        H  0.75329721  0.42282069  0.62068769     0.05500
H640        H  0.75489567  0.32602878  0.62188686     0.05500
C641        C  0.82297965  0.40374127  0.57295739    -0.12000
C642        C  0.85006851  0.41895485  0.55575798    -0.13600
C643        C  0.15437160  0.42079760  0.55849628    -0.12000
C644        C  0.18276894  0.40565985  0.57430517    -0.13600
C645        C  0.97925218  0.11744958  0.53362239    -0.15200
C646        C  0.00201206  0.13273618  0.56269844    -0.30400
H647        H  0.95946173  0.12630806  0.50637079     0.13800
H648        H  0.01836725  0.13212875  0.09677429     0.14400
C649        C  0.99682853  0.37007540  0.91940990    -0.15200
C650        C  0.97170607  0.38594665  0.94592461    -0.30400
H651        H  0.02029304  0.37776043  0.89394358     0.13800
H652        H  0.97505417  0.37508178  0.39928452     0.14400
C653        C  0.82563995  0.34547169  0.57596644    -0.12000
C654        C  0.85437036  0.33033886  0.56111287    -0.13600
C655        C  0.15732059  0.33079014  0.55967864    -0.12000
C656        C  0.18429000  0.34692904  0.57420699    -0.13600
C657        C  0.18144599  0.15690410  0.91570355    -0.12000
C658        C  0.15422305  0.17245680  0.93199972    -0.13600
C659        C  0.17981547  0.09835839  0.91701471    -0.12000
C660        C  0.15182865  0.08315727  0.93293481    -0.13600
C661        C  0.65684004  0.41943549  0.68398119    -0.12000
C662        C  0.68396504  0.40368785  0.66825927    -0.13600
C663        C  0.32536697  0.40548353  0.66588492    -0.12000
C664        C  0.35386175  0.42049210  0.68139226    -0.13600
C665        C  0.35041182  0.08076598  0.81124478    -0.12000
C666        C  0.32178074  0.09624780  0.82535543    -0.13600
C667        C  0.50290748  0.13233373  0.66689429    -0.15200
C668        C  0.53035853  0.11641635  0.69115716    -0.30400
H669        H  0.47699725  0.12465274  0.64359642     0.13800
H670        H  0.55507968  0.12516991  0.71465943     0.14400
C671        C  0.50237081  0.36315953  0.81826394    -0.15200
C672        C  0.52881407  0.37951668  0.79415381    -0.30400
H673        H  0.47814796  0.37023001  0.84365282     0.13800
H674        H  0.55227002  0.37151366  0.76879764     0.14400
C675        C  0.68326651  0.34494308  0.66710148    -0.12000
C676        C  0.65507072  0.32937686  0.68170584    -0.13600
C677        C  0.35142773  0.33143194  0.68363957    -0.12000
C678        C  0.32432806  0.34708829  0.66750546    -0.13600
C679        C  0.34855214  0.16913104  0.80264210    -0.12000
C680        C  0.32072493  0.15446347  0.82008996    -0.13600
C681        C  0.84977261  0.08354715  0.93652399    -0.12000
C682        C  0.82236678  0.09929236  0.92140554    -0.13600
C683        C  0.84986934  0.17362498  0.93290912    -0.12000
C684        C  0.82196131  0.15797423  0.91796080    -0.13600
C685        C  0.65473320  0.08063956  0.81399065    -0.12000
C686        C  0.68213925  0.09656380  0.82865633    -0.13600
C687        C  0.68136641  0.15476433  0.82383482    -0.12000
C688        C  0.65320439  0.16909791  0.80603154    -0.13600
C689        C  0.71683959  0.61188351  0.34647440     0.03500
C690        C  0.71699996  0.63949886  0.34565861     0.03500
C691        C  0.75212617  0.65300802  0.36943704    -0.17000
C692        C  0.78687756  0.63963969  0.39388760     0.03500
C693        C  0.78662843  0.61205347  0.39424780     0.03500
C694        C  0.75173658  0.59860778  0.37050716    -0.17000
H695        H  0.75155319  0.57741053  0.37098916     0.05500
H696        H  0.75231509  0.67418920  0.36905828     0.05500
Zr697      Zr  0.50013594  0.79296546  0.19544132     2.17500
O698        O  0.50551352  0.81181883  0.12085923    -0.50100
O699        O  0.48655971  0.83111178  0.23959093    -0.73300
O700        O  0.42563727  0.81326496  0.17745182    -0.80100
O701        O  0.63292289  0.78860810  0.20689830    -0.81800
O702        O  0.36781093  0.78742137  0.20640692    -0.77500
O703        O  0.57417981  0.81562464  0.18299565    -0.89100
O704        O  0.48684351  0.82129868  0.31370118    -0.75100
O705        O  0.44842275  0.78267024  0.25535305    -0.84500
O706        O  0.54868580  0.78449318  0.25868874    -0.84200
O707        O  0.45359524  0.75702118  0.16926811    -0.71000
O708        O  0.55021594  0.75776737  0.17294805    -0.83100
Zr709      Zr  0.50132711  0.70148305  0.27189403     2.26400
Zr710      Zr  0.40335982  0.74605552  0.23099508     2.06300
Zr711      Zr  0.59775536  0.74864455  0.23742561     2.10000
Zr712      Zr  0.49684794  0.77408543  0.31820663     1.78800
O713        O  0.65923885  0.73542759  0.18539830    -0.91900
O714        O  0.42703490  0.78328841  0.36296975    -0.39700
O715        O  0.54658893  0.73792684  0.29841232    -0.76400
O716        O  0.45147982  0.73687700  0.29518328    -0.95100
O717        O  0.45209542  0.71020834  0.20925824    -0.88400
O718        O  0.55277049  0.71217036  0.21192555    -0.91200
C719        C  0.48291650  0.83720118  0.28079967     1.02500
C720        C  0.61774139  0.81007659  0.18974515     1.15500
C721        C  0.38256991  0.80839117  0.18716867     1.06300
O722        O  0.33428648  0.75670785  0.27569034    -0.93400
O723        O  0.36809663  0.70751372  0.26662880    -0.89100
O724        O  0.42702018  0.68025946  0.28909110    -0.82300
C725        C  0.38340096  0.68636110  0.28483101     1.12900
O726        O  0.50679055  0.74409722  0.07787172    -0.95300
Zr727      Zr  0.50355376  0.72120704  0.14925850     1.88900
O728        O  0.50536640  0.66348650  0.22429760    -0.72000
O729        O  0.35350075  0.73091266  0.16993466    -0.51200
O730        O  0.43518797  0.70858780  0.10481110    -0.95900
O731        O  0.57098309  0.70725133  0.10459620    -0.53100
O732        O  0.50327847  0.67387394  0.15051569    -0.72500
C733        C  0.50551437  0.65745229  0.18264060     0.99800
O734        O  0.50146467  0.68150025  0.34597274    -0.61300
O735        O  0.65367177  0.76325445  0.29401117    -0.56100
O736        O  0.57611748  0.68158660  0.29172257    -0.92800
O737        O  0.63432879  0.70978537  0.27108938    -0.91200
O738        O  0.56289084  0.79208344  0.36025424    -0.91600
O739        O  0.50160923  0.75494252  0.39252955    -0.90400
C740        C  0.61957225  0.68817692  0.28815826     1.18700
H741        H  0.56718172  0.79959490  0.26685098     0.34600
H742        H  0.43189813  0.73142613  0.31987712     0.45500
H743        H  0.57357237  0.69780278  0.20500981     0.39000
H744        H  0.43501014  0.76227548  0.14376055     0.35500
H745        H  0.43654090  0.79777856  0.38295842     0.27300
H746        H  0.32180167  0.72911097  0.18346678     0.33200
H747        H  0.44658922  0.69433270  0.08523730     0.39100
H748        H  0.54842930  0.80479203  0.38109783     0.33600
H749        H  0.68440811  0.76390937  0.27835048     0.32500
H750        H  0.68892357  0.73705294  0.20262723     0.34100
H751        H  0.55792979  0.69455873  0.08288933     0.33100
H752        H  0.49185410  0.73655128  0.38832783     0.37100
H753        H  0.52734534  0.69028193  0.36237696     0.29800
H754        H  0.49603553  0.83030020  0.12453181     0.34100
H755        H  0.50254793  0.73053891  0.05461631     0.36900
H756        H  0.64553940  0.78177306  0.29951137     0.29500
H757        H  0.47257401  0.68799692  0.36086648     0.42400
H758        H  0.34598245  0.75703088  0.30686296     0.32500
H759        H  0.40448479  0.79132096  0.34177586     0.40100
H760        H  0.59057050  0.69656950  0.12496282     0.31900
H761        H  0.35059330  0.74606111  0.14960627     0.32000
H762        H  0.47941435  0.80371255  0.10376927     0.32300
Zr763      Zr  0.50347835  0.54310723  0.29398898     2.17500
O764        O  0.49874880  0.56238992  0.36834020    -0.50100
O765        O  0.51698107  0.58103761  0.24951771    -0.73300
O766        O  0.57736757  0.56417106  0.31096439    -0.80100
O767        O  0.37079978  0.53843172  0.28331066    -0.81800
O768        O  0.63538956  0.53815587  0.28275344    -0.77500
O769        O  0.42962187  0.56572246  0.30616130    -0.89100
O770        O  0.51777998  0.57068575  0.17559890    -0.75100
O771        O  0.55494327  0.53261567  0.23403622    -0.84500
O772        O  0.45464463  0.53405783  0.23111332    -0.84200
O773        O  0.55065923  0.50761025  0.32070200    -0.71000
O774        O  0.45391919  0.50801695  0.31770072    -0.83100
Zr775      Zr  0.50441989  0.95158258  0.21807108     2.26400
Zr776      Zr  0.60057894  0.49641038  0.25882843     2.06300
Zr777      Zr  0.40609284  0.49827430  0.25369608     2.10000
Zr778      Zr  0.50639453  0.52344002  0.17154739     1.78800
O779        O  0.34578714  0.98486520  0.30424487    -0.91900
O780        O  0.57612236  0.53164745  0.12608659    -0.39700
O781        O  0.45866695  0.98760999  0.19110114    -0.76400
O782        O  0.55393563  0.98708298  0.19487896    -0.95100
O783        O  0.55320410  0.96079080  0.28081654    -0.88400
O784        O  0.45246074  0.96193102  0.27781968    -0.91200
C785        C  0.52141973  0.58682596  0.20828738     1.02500
C786        C  0.38609760  0.56006833  0.29978937     1.15500
C787        C  0.62041978  0.55933461  0.30124626     1.06300
O788        O  0.66683975  0.50704883  0.21045537    -0.93400
O789        O  0.63717133  0.95757890  0.22605941    -0.89100
O790        O  0.57870331  0.93033362  0.20234644    -0.82300
C791        C  0.62215739  0.93632681  0.20789146     1.12900
O792        O  0.49783495  0.99346042  0.41280632    -0.95300
Zr793      Zr  0.50129443  0.97143373  0.34056942     1.88900
O794        O  0.50105850  0.91364133  0.26536139    -0.72000
O795        O  0.65409785  0.98290834  0.31904341    -0.51200
O796        O  0.57055706  0.95866939  0.38351826    -0.95900
O797        O  0.43436725  0.95760844  0.38598608    -0.53100
O798        O  0.50152411  0.92409549  0.33914834    -0.72500
C799        C  0.50012146  0.90765323  0.30696922     0.99800
O800        O  0.50641737  0.93182082  0.14382855    -0.61300
O801        O  0.34937583  0.51197550  0.19721765    -0.56100
O802        O  0.43046154  0.93073411  0.19835548    -0.92800
O803        O  0.37167141  0.95863338  0.21874515    -0.91200
O804        O  0.44120387  0.54175799  0.12877283    -0.91600
O805        O  0.49932620  0.50379205  0.09767048    -0.90400
C806        C  0.38687146  0.93702851  0.20194845     1.18700
H807        H  0.43596486  0.54903666  0.22272691     0.34600
H808        H  0.57378229  0.98160000  0.17038209     0.45500
H809        H  0.43193804  0.94744727  0.28474777     0.39000
H810        H  0.56934684  0.51316415  0.34597595     0.35500
H811        H  0.56659437  0.54574949  0.10535388     0.27300
H812        H  0.68604350  0.98389921  0.30578116     0.33200
H813        H  0.55940520  0.94458757  0.40354008     0.39100
H814        H  0.45605071  0.55471169  0.10866200     0.33600
H815        H  0.31886787  0.51291627  0.21323245     0.32500
H816        H  0.31584844  0.99007364  0.28972044     0.34100
H817        H  0.44697121  0.94373873  0.40568516     0.33100
H818        H  0.51395589  0.48634207  0.10073604     0.37100
H819        H  0.47914361  0.93939307  0.12772159     0.29800
H820        H  0.50748233  0.58094916  0.36422728     0.34100
H821        H  0.50376226  0.97977381  0.43546613     0.36900
H822        H  0.35749060  0.53038877  0.19078664     0.29500
H823        H  0.53411898  0.93969292  0.12886644     0.42400
H824        H  0.65507668  0.50383175  0.17978425     0.32500
H825        H  0.59877425  0.54007427  0.14675658     0.40100
H826        H  0.41304977  0.94833470  0.36512684     0.31900
H827        H  0.65334942  0.99727841  0.34116872     0.32000
H828        H  0.52543697  0.55469390  0.38514085     0.32300
C829        C  0.28733607  0.61090839  0.34665204     0.03500
C830        C  0.28703835  0.63848619  0.34562330     0.03500
C831        C  0.25204709  0.65202188  0.36940945    -0.17000
C832        C  0.21714753  0.63864603  0.39357996     0.03500
C833        C  0.21664478  0.61108262  0.39319843     0.03500
C834        C  0.25192287  0.59758447  0.37000355    -0.17000
H835        H  0.25192735  0.57639308  0.37026918     0.05500
H836        H  0.25204189  0.67320380  0.36921061     0.05500
Zr837      Zr  0.00294931  0.70087864  0.46789768     2.17500
O838        O  0.99919909  0.67652544  0.39786164    -0.50900
O839        O  0.00198873  0.66430914  0.51854829    -0.73300
O840        O  0.07782201  0.68050215  0.45006076    -0.80100
O841        O  0.86987782  0.70962262  0.46851972    -0.81800
O842        O  0.13654247  0.70886054  0.46883649    -0.77500
O843        O  0.92798605  0.68123963  0.44814234    -0.89100
O844        O  0.01750248  0.67908828  0.06500035    -0.75100
O845        O  0.05445409  0.71286356  0.52729671    -0.84500
O846        O  0.95535813  0.71651412  0.01209223    -0.84200
O847        O  0.05089053  0.73552509  0.43875717    -0.71000
O848        O  0.95536169  0.73591332  0.44002789    -0.83100
Zr849      Zr  0.00366684  0.79881825  0.02621550     2.26400
Zr850      Zr  0.10076613  0.74853491  0.49978515     2.06300
Zr851      Zr  0.90623543  0.74867755  0.50151530     2.10000
Zr852      Zr  0.00823636  0.72629896  0.07123709     1.78800
O853        O  0.84704528  0.76331724  0.44818326    -0.91900
O854        O  0.07815436  0.71602267  0.11520301    -0.39700
O855        O  0.95822533  0.76256797  0.05265048    -0.76400
O856        O  0.05380429  0.76351917  0.04872081    -0.95100
O857        O  0.05383394  0.78377711  0.47272717    -0.88400
O858        O  0.95325248  0.78353791  0.47327457    -0.91200
C859        C  0.02028388  0.66336793  0.03168230     1.02500
C860        C  0.88458368  0.68796151  0.45160534     1.15500
C861        C  0.12132151  0.68706591  0.45295955     1.06300
O862        O  0.16617163  0.74223170  0.03292610    -0.93400
O863        O  0.13634858  0.79426439  0.01723079    -0.89100
O864        O  0.07729863  0.82084112  0.04171355    -0.82300
C865        C  0.12088754  0.81536729  0.03570350     1.12900
O866        O  0.00262989  0.74619204  0.34348657    -0.95300
Zr867      Zr  0.00336212  0.77103139  0.41305040     1.88900
O868        O  0.99931567  0.83657873  0.97899481    -0.72000
O869        O  0.15899454  0.76249963  0.44493863    -0.51200
O870        O  0.07346236  0.78211686  0.36992726    -0.95900
O871        O  0.93639028  0.78221563  0.36562132    -0.53100
O872        O  0.00416476  0.81825791  0.40849031    -0.72500
C873        C  0.00208476  0.83592205  0.43866551     0.99800
O874        O  0.00544585  0.81836873  0.10060602    -0.61300
O875        O  0.85159052  0.73820800  0.04963976    -0.56100
O876        O  0.92994657  0.81949624  0.04650499    -0.92800
O877        O  0.87091503  0.79199439  0.02512983    -0.91200
O878        O  0.94320924  0.70844685  0.11469469    -0.91600
O879        O  0.00580682  0.74538794  0.14576822    -0.90400
C880        C  0.88632244  0.81345159  0.04237545     1.18700
H881        H  0.93681596  0.70140726  0.02007370     0.34600
H882        H  0.07358727  0.76896235  0.07330612     0.45500
H883        H  0.93318039  0.79785338  0.46438914     0.39000
H884        H  0.06969425  0.72922328  0.41408806     0.35500
H885        H  0.06783524  0.70214888  0.13604041     0.27300
H886        H  0.18868358  0.75388426  0.45423474     0.33200
H887        H  0.06267019  0.79523808  0.34790661     0.39100
H888        H  0.95822367  0.69589579  0.13544226     0.33600
H889        H  0.82027792  0.73830997  0.03496987     0.32500
H890        H  0.81705009  0.76314196  0.46511414     0.34100
H891        H  0.94842828  0.79578266  0.34502438     0.33100
H892        H  0.01585706  0.76371809  0.14150772     0.37100
H893        H  0.97966103  0.80966466  0.11720574     0.29800
H894        H  0.00968429  0.65859483  0.40521069     0.34100
H895        H  0.00641456  0.75920048  0.31930237     0.36900
H896        H  0.85882988  0.71948616  0.05408776     0.29500
H897        H  0.03448632  0.81158108  0.11485355     0.42400
H898        H  0.15408563  0.74515033  0.06355600     0.32500
H899        H  0.09954495  0.70703765  0.09404411     0.40100
H900        H  0.91412709  0.79160141  0.38538797     0.31900
H901        H  0.14990728  0.75356202  0.41688455     0.32000
H902        H  0.02458674  0.68382627  0.37889576     0.32300
Zr903      Zr  0.00134862  0.96073461  0.04634916     2.17500
O904        O  0.00703563  0.94522651  0.12314187    -0.50100
O905        O  0.98898924  0.92108375  0.00602103    -0.73300
O906        O  0.92759784  0.93993797  0.06596633    -0.80100
O907        O  0.13407133  0.96492907  0.03433107    -0.81800
O908        O  0.86923032  0.96311551  0.03182621    -0.77500
O909        O  0.07548020  0.93867892  0.06087821    -0.89100
O910        O  0.99049235  0.92182653  0.42156890    -0.75100
O911        O  0.95122865  0.96190622  0.47372023    -0.84500
O912        O  0.05183011  0.96184296  0.47336513    -0.84200
O913        O  0.95262899  0.99695755  0.06725488    -0.71000
O914        O  0.04953645  0.99738788  0.06596590    -0.83100
Zr915      Zr  0.00013520  0.54592532  0.45539461     2.26400
Zr916      Zr  0.90330811  0.49911382  0.49174051     2.06300
Zr917      Zr  0.09788292  0.50005755  0.49217160     2.10000
Zr918      Zr  0.00134395  0.96864813  0.41130818     1.78800
O919        O  0.15731536  0.51731715  0.05271583    -0.91900
O920        O  0.93505075  0.95791290  0.36293535    -0.39700
O921        O  0.04860123  0.51083278  0.42960295    -0.76400
O922        O  0.95209180  0.51058517  0.42924371    -0.95100
O923        O  0.95057409  0.53978959  0.02673513    -0.88400
O924        O  0.05031647  0.53582145  0.51673662    -0.91200
C925        C  0.98593042  0.90735962  0.45628405     1.02500
C926        C  0.11896084  0.94389133  0.05311534     1.15500
C927        C  0.88458530  0.94338525  0.05426052     1.06300
O928        O  0.84521218  0.98568221  0.43651058    -0.93400
O929        O  0.86761957  0.53972494  0.46369513    -0.89100
O930        O  0.92585778  0.56676214  0.43883553    -0.82300
C931        C  0.88254231  0.56114511  0.44602734     1.12900
O932        O  0.00483879  0.50657506  0.15880163    -0.95300
Zr933      Zr  0.00162819  0.52907044  0.08708834     1.88900
O934        O  0.99021913  0.58373705  0.50154829    -0.72000
O935        O  0.84672670  0.51806286  0.06058359    -0.51200
O936        O  0.93213897  0.54082229  0.13060681    -0.95900
O937        O  0.06864881  0.54362056  0.13180937    -0.53100
O938        O  0.99922004  0.57625235  0.08646409    -0.72500
C939        C  0.00213737  0.59278395  0.05463160     0.99800
O940        O  0.00204494  0.56587926  0.38145734    -0.61300
O941        O  0.15788975  0.98558273  0.43767481    -0.56100
O942        O  0.07437838  0.56775920  0.44078793    -0.92800
O943        O  0.13320026  0.53968513  0.46059515    -0.91200
O944        O  0.06791094  0.94793494  0.37406800    -0.91600
O945        O  0.01203921  0.98548287  0.33594101    -0.90400
C946        C  0.11795757  0.56151001  0.44484987     1.18700
H947        H  0.07115752  0.94673603  0.46728017     0.34600
H948        H  0.93263338  0.51626657  0.40459882     0.45500
H949        H  0.07148161  0.55352700  0.03226675     0.39000
H950        H  0.93386870  0.99244534  0.09305842     0.35500
H951        H  0.94681649  0.94360345  0.34366653     0.27300
H952        H  0.81580144  0.51169474  0.04969540     0.33200
H953        H  0.94236851  0.55557004  0.14969800     0.39100
H954        H  0.05348351  0.93502311  0.35355600     0.33600
H955        H  0.18693612  0.98280762  0.45543258     0.32500
H956        H  0.18764189  0.51440028  0.03709021     0.34100
H957        H  0.05533888  0.55644867  0.15312300     0.33100
H958        H  0.99339018  0.00180925  0.33520196     0.37100
H959        H  0.02823270  0.55697997  0.36572675     0.29800
H960        H  0.99749503  0.92664565  0.12193565     0.34100
H961        H  0.00012874  0.52024481  0.18178103     0.36900
H962        H  0.14804975  0.96783702  0.42844195     0.29500
H963        H  0.97335179  0.55945801  0.36610267     0.42400
H964        H  0.84684586  0.96638477  0.43582666     0.32500
H965        H  0.91187768  0.94942056  0.38293077     0.40100
H966        H  0.08828259  0.55419856  0.11134284     0.31900
H967        H  0.85354029  0.50719813  0.08714466     0.32000
H968        H  0.98101975  0.95409982  0.13917037     0.32300
C969        C  0.28720927  0.86170547  0.14148213     0.03500
C970        C  0.28789740  0.88924363  0.14499180     0.03500
C971        C  0.25250429  0.90378631  0.12365902    -0.17000
C972        C  0.21683172  0.89160069  0.09862511     0.03500
C973        C  0.21676963  0.86408360  0.09448487     0.03500
C974        C  0.25185715  0.84956713  0.11613815    -0.17000
H975        H  0.25164153  0.82844024  0.11322910     0.05500
H976        H  0.25274883  0.92490972  0.12654078     0.05500
C977        C  0.71882732  0.88853546  0.14857836     0.03500
C978        C  0.71781089  0.86108094  0.14441576     0.03500
C979        C  0.75311187  0.84849167  0.11961381    -0.17000
C980        C  0.78915742  0.86262743  0.09844684     0.03500
C981        C  0.78955230  0.89020966  0.10189866     0.03500
C982        C  0.75448800  0.90271785  0.12710164    -0.17000
H983        H  0.75491266  0.92384217  0.13000349     0.05500
H984        H  0.75251798  0.82737039  0.11674759     0.05500
C985        C  0.82482070  0.90672999  0.08111373    -0.12000
C986        C  0.85155720  0.92336123  0.06746847    -0.13600
C987        C  0.15300443  0.92438820  0.06615209    -0.12000
C988        C  0.18099888  0.90820019  0.07899403    -0.13600
C989        C  0.00489016  0.62065829  0.06564143    -0.15200
C990        C  0.03031791  0.63586127  0.03857612    -0.30400
H991        H  0.98235170  0.62885864  0.09142507     0.13800
H992        H  0.03282727  0.62476743  0.59560999     0.14400
C993        C  0.99957262  0.86346800  0.42521268    -0.15200
C994        C  0.97550010  0.87967547  0.45183360    -0.30400
H995        H  0.02149916  0.87070489  0.39816738     0.13800
H996        H  0.95783504  0.87688673  0.98973591     0.14400
C997        C  0.82494729  0.84771582  0.07493645    -0.12000
C998        C  0.85253310  0.83231289  0.05871259    -0.13600
C999        C  0.15450099  0.83429087  0.05215697    -0.12000
C1000       C  0.18152425  0.84956785  0.06954609    -0.13600
C1001       C  0.18268624  0.65395898  0.41784063    -0.12000
C1002       C  0.15524353  0.66874905  0.43561693    -0.13600
C1003       C  0.18053007  0.59573712  0.41511804    -0.12000
C1004       C  0.15211585  0.58045652  0.43007314    -0.13600
C1005       C  0.65628906  0.91793668  0.19110038    -0.12000
C1006       C  0.68383742  0.90314959  0.17343755    -0.13600
C1007       C  0.32432326  0.90360989  0.16871151    -0.12000
C1008       C  0.35272175  0.91844296  0.18527515    -0.13600
C1009       C  0.35208064  0.57955882  0.31242285    -0.12000
C1010       C  0.32367579  0.59530692  0.32579751    -0.13600
C1011       C  0.50831196  0.62942050  0.17220788    -0.15200
C1012       C  0.53246245  0.61422083  0.20042882    -0.30400
H1013       H  0.48624675  0.62114258  0.14611455     0.13800
H1014       H  0.55380386  0.62343884  0.22627642     0.14400
C1015       C  0.47275471  0.86468690  0.28848832    -0.15200
C1016       C  0.49686635  0.87965390  0.31716423    -0.30400
H1017       H  0.45190932  0.87406937  0.26248033     0.13800
H1018       H  0.51838281  0.87122100  0.34349427     0.14400
C1019       C  0.68105101  0.84504683  0.16389659    -0.12000
C1020       C  0.65207120  0.82944703  0.17686688    -0.13600
C1021       C  0.34877524  0.82819854  0.17522484    -0.12000
C1022       C  0.32196691  0.84488584  0.16210957    -0.13600
C1023       C  0.34940827  0.66827447  0.30311856    -0.12000
C1024       C  0.32182324  0.65364825  0.32125623    -0.13600
C1025       C  0.84855718  0.58045647  0.43237749    -0.12000
C1026       C  0.82147307  0.59642867  0.41733701    -0.13600
C1027       C  0.85007988  0.66983046  0.43435953    -0.12000
C1028       C  0.82203233  0.65500040  0.41736978    -0.13600
C1029       C  0.65400641  0.57939820  0.31234907    -0.12000
C1030       C  0.68120207  0.59597601  0.32513916    -0.13600
C1031       C  0.68180692  0.65482512  0.32205247    -0.12000
C1032       C  0.65398131  0.66987151  0.30521727    -0.13600
C1033       C  0.71530161  0.61252972  0.85118953     0.03500
C1034       C  0.71514367  0.64013022  0.84939137     0.03500
C1035       C  0.75085640  0.65401929  0.87146171    -0.17000
C1036       C  0.78629486  0.64109061  0.89551189     0.03500
C1037       C  0.78578511  0.61358048  0.89806128     0.03500
C1038       C  0.75045013  0.59967387  0.87567022    -0.17000
H1039       H  0.75032480  0.57850180  0.87729472     0.05500
H1040       H  0.75112722  0.67518726  0.86985198     0.05500
Zr1041     Zr  0.50085236  0.79571559  0.70456605     2.17500
O1042       O  0.50695011  0.81473757  0.63016216    -0.50100
O1043       O  0.48847529  0.83395867  0.74898510    -0.73300
O1044       O  0.42703282  0.81620857  0.68564418    -0.80100
O1045       O  0.63342495  0.79032252  0.71504612    -0.81800
O1046       O  0.36835675  0.79011714  0.71245469    -0.77500
O1047       O  0.57518275  0.81786931  0.69188992    -0.89100
O1048       O  0.48592563  0.82368545  0.82288768    -0.75100
O1049       O  0.44838718  0.78541843  0.76387799    -0.84500
O1050       O  0.54893474  0.78672646  0.76786913    -0.84200
O1051       O  0.45371796  0.76012661  0.67782522    -0.71000
O1052       O  0.55040220  0.76045198  0.68148850    -0.83100
Zr1053     Zr  0.50014171  0.70418792  0.77942495     2.26400
Zr1054     Zr  0.40283242  0.74900835  0.73913663     2.06300
Zr1055     Zr  0.59743346  0.75074704  0.74601491     2.10000
Zr1056     Zr  0.49628280  0.77638401  0.82689285     1.78800
O1057       O  0.66049803  0.73812987  0.69524929    -0.91900
O1058       O  0.42577036  0.78448399  0.87129527    -0.39700
O1059       O  0.54581510  0.74019357  0.80667751    -0.76400
O1060       O  0.45045434  0.73937651  0.80335882    -0.95100
O1061       O  0.45145135  0.71334650  0.71674919    -0.88400
O1062       O  0.55202781  0.71469458  0.71971764    -0.91200
C1063       C  0.48352238  0.83983879  0.79017033     1.02500
C1064       C  0.61862513  0.81191168  0.69806957     1.15500
C1065       C  0.38372818  0.81113816  0.69386566     1.06300
O1066       O  0.33874288  0.76057491  0.78956391    -0.93400
O1067       O  0.36750124  0.70871006  0.76908954    -0.89100
O1068       O  0.42639184  0.68190407  0.79314156    -0.82300
C1069       C  0.38285299  0.68736323  0.78670657     1.12900
O1070       O  0.50788859  0.74720456  0.58581237    -0.95300
Zr1071     Zr  0.50321285  0.72429215  0.65706976     1.88900
O1072       O  0.50433314  0.66667903  0.73143197    -0.72000
O1073       O  0.34823358  0.73548633  0.68061437    -0.51200
O1074       O  0.43419085  0.71197094  0.61331260    -0.95900
O1075       O  0.57001529  0.70984622  0.61202913    -0.53100
O1076       O  0.50313100  0.67701655  0.65771051    -0.72500
C1077       C  0.50511559  0.66063203  0.68985872     0.99800
O1078       O  0.49755520  0.68421939  0.85338432    -0.61300
O1079       O  0.65205115  0.76452059  0.80422881    -0.56100
O1080       O  0.57396076  0.68343230  0.79910786    -0.92800
O1081       O  0.63283849  0.71105934  0.77793936    -0.91200
O1082       O  0.56070803  0.79484481  0.87054022    -0.91600
O1083       O  0.50356457  0.75672845  0.90065441    -0.90400
C1084       C  0.61754489  0.68952440  0.79486422     1.18700
H1085       H  0.56770577  0.80169040  0.77622104     0.34600
H1086       H  0.43072986  0.73366774  0.82777270     0.45500
H1087       H  0.57260422  0.70025874  0.71261726     0.39000
H1088       H  0.43532754  0.76560089  0.65232786     0.35500
H1089       H  0.43540654  0.79793225  0.89326203     0.27300
H1090       H  0.31655739  0.73865610  0.69345630     0.33200
H1091       H  0.44531651  0.69783644  0.59334265     0.39100
H1092       H  0.54525327  0.80687613  0.89191725     0.33600
H1093       H  0.68308858  0.76544932  0.78915988     0.32500
H1094       H  0.68989328  0.74148333  0.71219307     0.34100
H1095       H  0.55689976  0.69655079  0.59144072     0.33100
H1096       H  0.48653118  0.73991645  0.89828078     0.37100
H1097       H  0.52378449  0.69243032  0.87014619     0.29800
H1098       H  0.49721327  0.83318184  0.63376527     0.34100
H1099       H  0.50250859  0.73375902  0.56257359     0.36900
H1100       H  0.64370279  0.78293917  0.81036144     0.29500
H1101       H  0.46886758  0.69139741  0.86771171     0.42400
H1102       H  0.35033819  0.75583222  0.81968920     0.32500
H1103       H  0.40407277  0.79372849  0.85076309     0.40100
H1104       H  0.59037826  0.69983368  0.63271116     0.31900
H1105       H  0.35146919  0.74877697  0.65682465     0.32000
H1106       H  0.48120763  0.80654865  0.61270401     0.32300
Zr1107     Zr  0.50474391  0.54222899  0.79547926     2.17500
O1108       O  0.49929233  0.55783646  0.87223079    -0.50100
O1109       O  0.51653017  0.58199046  0.75542792    -0.73300
O1110       O  0.57830554  0.56314205  0.81436023    -0.80100
O1111       O  0.37208693  0.53799492  0.78302577    -0.81800
O1112       O  0.63672818  0.53943773  0.78127654    -0.77500
O1113       O  0.43050612  0.56433769  0.80970513    -0.89100
O1114       O  0.51654656  0.57498275  0.68035637    -0.75100
O1115       O  0.55594379  0.53487235  0.73393917    -0.84500
O1116       O  0.45572377  0.53555270  0.73194701    -0.84200
O1117       O  0.55311605  0.50594653  0.81698989    -0.71000
O1118       O  0.45647057  0.50574747  0.81518715    -0.83100
Zr1119     Zr  0.50361800  0.95295604  0.71750107     2.26400
Zr1120     Zr  0.60312382  0.49819674  0.75356062     2.06300
Zr1121     Zr  0.40817838  0.49866251  0.75066604     2.10000
Zr1122     Zr  0.50709777  0.52812493  0.67067626     1.78800
O1123       O  0.34830668  0.98565311  0.80606878    -0.91900
O1124       O  0.57561344  0.53928200  0.62547306    -0.39700
O1125       O  0.45677903  0.98858093  0.69012635    -0.76400
O1126       O  0.55122864  0.98855608  0.69096213    -0.95100
O1127       O  0.55406729  0.96375956  0.77824642    -0.88400
O1128       O  0.45304677  0.96427463  0.77778504    -0.91200
C1129       C  0.51998310  0.58962263  0.71498821     1.02500
C1130       C  0.38703892  0.55905917  0.80187443     1.15500
C1131       C  0.62127425  0.55946031  0.80292571     1.06300
O1132       O  0.66775045  0.51029751  0.70417819    -0.93400
O1133       O  0.63696229  0.96019494  0.72173189    -0.89100
O1134       O  0.57849806  0.93187933  0.70209705    -0.82300
C1135       C  0.62200905  0.93833985  0.70575284     1.12900
O1136       O  0.50189538  0.99872121  0.90956005    -0.95300
Zr1137     Zr  0.50362336  0.97520633  0.83865935     1.88900
O1138       O  0.50043578  0.91576489  0.76725430    -0.72000
O1139       O  0.65795288  0.98615715  0.80930574    -0.51200
O1140       O  0.57337224  0.96402527  0.88232269    -0.95900
O1141       O  0.43708834  0.96133706  0.88452841    -0.53100
O1142       O  0.50694742  0.92792734  0.84004353    -0.72500
C1143       C  0.50293803  0.91073959  0.80923939     0.99800
O1144       O  0.50609660  0.93107470  0.64499825    -0.61300
O1145       O  0.34867130  0.51234720  0.69683551    -0.56100
O1146       O  0.42896370  0.93254281  0.69824041    -0.92800
O1147       O  0.37038790  0.96081204  0.71769024    -0.91200
O1148       O  0.44136763  0.54810076  0.63091971    -0.91600
O1149       O  0.49977344  0.51050396  0.59537876    -0.90400
C1150       C  0.38541553  0.93908590  0.70119274     1.18700
H1151       H  0.43666588  0.55070087  0.72543886     0.34600
H1152       H  0.57045487  0.98277217  0.66622093     0.45500
H1153       H  0.43283271  0.94983768  0.78572825     0.39000
H1154       H  0.57178799  0.51048105  0.84287433     0.35500
H1155       H  0.56513410  0.55414581  0.60681887     0.27300
H1156       H  0.68883286  0.99156614  0.79693214     0.33200
H1157       H  0.56255133  0.95056680  0.90372155     0.39100
H1158       H  0.45629429  0.56013754  0.60925317     0.33600
H1159       H  0.31885661  0.51286585  0.71403643     0.32500
H1160       H  0.31753438  0.98790120  0.79089230     0.34100
H1161       H  0.45043069  0.94839636  0.90559351     0.33100
H1162       H  0.52004270  0.49477243  0.59525435     0.37100
H1163       H  0.47867735  0.93795895  0.62823134     0.29800
H1164       H  0.50777541  0.57656557  0.87076954     0.34100
H1165       H  0.50441099  0.98523055  0.93311239     0.36900
H1166       H  0.35602062  0.53088346  0.69061711     0.29500
H1167       H  0.53357950  0.93869998  0.62931338     0.42400
H1168       H  0.65479752  0.50832980  0.67363390     0.32500
H1169       H  0.59829539  0.54703195  0.64687720     0.40100
H1170       H  0.41669737  0.95093646  0.86441762     0.31900
H1171       H  0.65275323  0.99798187  0.83501405     0.32000
H1172       H  0.52603367  0.54947340  0.88798359     0.32300
C1173       C  0.28736089  0.61051512  0.84701712     0.03500
C1174       C  0.28666627  0.63801793  0.84294200     0.03500
C1175       C  0.25096573  0.65225172  0.86429411    -0.17000
C1176       C  0.21564677  0.63982654  0.88922476     0.03500
C1177       C  0.21566305  0.61226785  0.89257267     0.03500
C1178       C  0.25169134  0.59802759  0.87154725    -0.17000
H1179       H  0.25200805  0.57690524  0.87435286     0.05500
H1180       H  0.25072987  0.67338238  0.86154793     0.05500
Zr1181     Zr  0.00320396  0.70836422  0.94821374     2.17500
O1182       O  0.99674302  0.69032350  0.87309764    -0.50900
O1183       O  0.01579426  0.66968221  0.99071152    -0.73300
O1184       O  0.07687643  0.68783095  0.92843124    -0.80100
O1185       O  0.87052101  0.71295265  0.96064244    -0.81800
O1186       O  0.13562274  0.71360164  0.95609548    -0.77500
O1187       O  0.92901669  0.68614950  0.93547940    -0.89100
O1188       O  0.00990886  0.67775734  0.59050679    -0.75100
O1189       O  0.05587706  0.71802961  0.00776758    -0.84500
O1190       O  0.95298588  0.71307504  0.52823945    -0.84200
O1191       O  0.05016776  0.74414989  0.92255298    -0.71000
O1192       O  0.95287425  0.74355557  0.92674054    -0.83100
Zr1193     Zr  0.00388421  0.79578958  0.53306438     2.26400
Zr1194     Zr  0.10126635  0.75464523  0.98409023     2.06300
Zr1195     Zr  0.90622423  0.75256028  0.99188303     2.10000
Zr1196     Zr  0.00440270  0.72517674  0.58746760     1.78800
O1197       O  0.84325657  0.76570131  0.94131366    -0.91900
O1198       O  0.07306527  0.71705963  0.63434750    -0.39700
O1199       O  0.95655456  0.76098806  0.56230046    -0.76400
O1200       O  0.05171316  0.76091332  0.56147949    -0.95100
O1201       O  0.05209611  0.79038827  0.96302655    -0.88400
O1202       O  0.95145913  0.78881971  0.96642543    -0.91200
C1203       C  0.00578528  0.65998641  0.56060074     1.02500
C1204       C  0.88558461  0.69167445  0.94270225     1.15500
C1205       C  0.12023906  0.69270691  0.93689645     1.06300
O1206       O  0.16025926  0.73621971  0.55454120    -0.93400
O1207       O  0.13682768  0.78906459  0.52810074    -0.89100
O1208       O  0.07833331  0.81760346  0.54660629    -0.82300
C1209       C  0.12184588  0.81125890  0.54273633     1.12900
O1210       O  0.99979479  0.75735660  0.83140880    -0.95300
Zr1211     Zr  0.99994458  0.77986590  0.90323950     1.88900
O1212       O  0.00178180  0.83156869  0.48089470    -0.72000
O1213       O  0.15513199  0.76945762  0.92600228    -0.51200
O1214       O  0.06814041  0.79496668  0.86103348    -0.95900
O1215       O  0.93215303  0.79194114  0.85752373    -0.53100
O1216       O  0.99670255  0.82697271  0.90498062    -0.72500
C1217       C  0.99640366  0.84300733  0.93769436     0.99800
O1218       O  0.00582177  0.81837618  0.60495346    -0.61300
O1219       O  0.84844296  0.73465755  0.55673284    -0.56100
O1220       O  0.92992726  0.81725117  0.55065102    -0.92800
O1221       O  0.87105966  0.78884067  0.53255864    -0.91200
O1222       O  0.93726201  0.71045615  0.63156096    -0.91600
O1223       O  0.99787150  0.74797714  0.65862410    -0.90400
C1224       C  0.88631314  0.81087924  0.54770436     1.18700
H1225       H  0.93307912  0.69871361  0.53725068     0.34600
H1226       H  0.07106769  0.76718129  0.58580056     0.45500
H1227       H  0.93073545  0.80326434  0.95979618     0.39000
H1228       H  0.06845023  0.73896811  0.89680813     0.35500
H1229       H  0.06143501  0.70536386  0.65825220     0.27300
H1230       H  0.18695126  0.76600358  0.93831895     0.33200
H1231       H  0.05562933  0.80848991  0.84059960     0.39100
H1232       H  0.95099341  0.69891230  0.65468522     0.33600
H1233       H  0.81822394  0.73395461  0.54017152     0.32500
H1234       H  0.81392826  0.76344534  0.95884610     0.34100
H1235       H  0.94320647  0.80667957  0.83888249     0.33100
H1236       H  0.01132209  0.76548555  0.65291806     0.37100
H1237       H  0.97910795  0.81102988  0.62215030     0.29800
H1238       H  0.00626931  0.67180533  0.87597912     0.34100
H1239       H  0.00397117  0.77114835  0.80859777     0.36900
H1240       H  0.85616695  0.71616522  0.56289994     0.29500
H1241       H  0.03405398  0.81152131  0.62050941     0.42400
H1242       H  0.15704713  0.71706432  0.55759285     0.32500
H1243       H  0.09379811  0.70584441  0.61590703     0.40100
H1244       H  0.90940989  0.79988487  0.87862089     0.31900
H1245       H  0.15158235  0.75666674  0.90141781     0.32000
H1246       H  0.02256470  0.69863028  0.85596476     0.32300
Zr1247     Zr  0.00168436  0.95511755  0.53609749     2.17500
O1248       O  0.00776725  0.93983597  0.61299840    -0.50100
O1249       O  0.98896863  0.91515591  0.49669252    -0.73300
O1250       O  0.92795278  0.93515259  0.55755676    -0.80100
O1251       O  0.13472207  0.96021178  0.52558544    -0.81800
O1252       O  0.86941790  0.95885257  0.52466586    -0.77500
O1253       O  0.07615345  0.93362634  0.55130065    -0.89100
O1254       O  0.98742195  0.92817329  0.93098888    -0.75100
O1255       O  0.95087108  0.96763254  0.98406910    -0.84500
O1256       O  0.05087421  0.96731353  0.98308569    -0.84200
O1257       O  0.95268933  0.99133460  0.55625393    -0.71000
O1258       O  0.04966488  0.99173251  0.55592532    -0.83100
Zr1259     Zr  0.00001750  0.54922852  0.96472313     2.26400
Zr1260     Zr  0.90288909  0.50377883  0.00401529     2.06300
Zr1261     Zr  0.09745646  0.50301735  0.99974095     2.10000
Zr1262     Zr  0.00026496  0.97457121  0.92115395     1.78800
O1263       O  0.15375108  0.51467201  0.54870698    -0.91900
O1264       O  0.93410674  0.96451802  0.87210603    -0.39700
O1265       O  0.04655041  0.51327879  0.93834586    -0.76400
O1266       O  0.95141899  0.51354497  0.94054706    -0.95100
O1267       O  0.94974859  0.53519673  0.51602782    -0.88400
O1268       O  0.05119954  0.53897258  0.02508658    -0.91200
C1269       C  0.98426661  0.91357868  0.96559467     1.02500
C1270       C  0.11965004  0.93919698  0.54440091     1.15500
C1271       C  0.88471748  0.93922282  0.54737980     1.06300
O1272       O  0.84197350  0.99236909  0.94957468    -0.93400
O1273       O  0.86720554  0.54349122  0.97281565    -0.89100
O1274       O  0.92580620  0.57065849  0.94931509    -0.82300
C1275       C  0.88232702  0.56481841  0.95507336     1.12900
O1276       O  0.00788965  0.50303370  0.64902091    -0.95300
Zr1277     Zr  0.99953331  0.52490357  0.57708086     1.88900
O1278       O  0.00314747  0.58697077  0.01289787    -0.72000
O1279       O  0.84429122  0.51256121  0.54629555    -0.51200
O1280       O  0.92763031  0.53222864  0.61990341    -0.95900
O1281       O  0.06256931  0.54291271  0.62330676    -0.53100
O1282       O  0.98968399  0.57236342  0.57502901    -0.72500
C1283       C  0.98651384  0.58902765  0.54310731     0.99800
O1284       O  0.99802833  0.56917113  0.89066470    -0.61300
O1285       O  0.15630410  0.99013759  0.94669530    -0.56100
O1286       O  0.07385398  0.57004080  0.94509608    -0.92800
O1287       O  0.13266425  0.54230905  0.96605521    -0.91200
O1288       O  0.06631894  0.95304505  0.88432803    -0.91600
O1289       O  0.01221801  0.99162920  0.84605390    -0.90400
C1290       C  0.11743393  0.56382396  0.94896411     1.18700
H1291       H  0.06992735  0.95212992  0.97679612     0.34600
H1292       H  0.93182624  0.51900462  0.91584854     0.45500
H1293       H  0.06960699  0.55063250  0.52475386     0.39000
H1294       H  0.93366468  0.98694379  0.58193384     0.35500
H1295       H  0.94555946  0.95007908  0.85294756     0.27300
H1296       H  0.81448858  0.50459856  0.53567395     0.33200
H1297       H  0.93455096  0.54763676  0.63879227     0.39100
H1298       H  0.05158231  0.94016477  0.86395208     0.33600
H1299       H  0.18659207  0.98975847  0.96317081     0.32500
H1300       H  0.18499446  0.51321557  0.53414780     0.34100
H1301       H  0.04667622  0.55548069  0.64345846     0.33100
H1302       H  0.99023409  0.00657894  0.84372528     0.37100
H1303       H  0.02476520  0.56123537  0.87426464     0.29800
H1304       H  0.99758051  0.92135383  0.61216967     0.34100
H1305       H  0.99764625  0.51587500  0.67178166     0.36900
H1306       H  0.14879054  0.97154824  0.94108661     0.29500
H1307       H  0.96981789  0.56172888  0.87585840     0.42400
H1308       H  0.84694075  0.97355406  0.94369145     0.32500
H1309       H  0.91041613  0.95628267  0.89186751     0.40100
H1310       H  0.08160965  0.55396058  0.60307994     0.31900
H1311       H  0.85217461  0.50284547  0.57388377     0.32000
H1312       H  0.98230802  0.94906565  0.62924134     0.32300
C1313       C  0.28819319  0.86233456  0.64351717     0.03500
C1314       C  0.28817184  0.88993406  0.64383813     0.03500
C1315       C  0.25293999  0.90320990  0.62004862    -0.17000
C1316       C  0.21801320  0.88963928  0.59611690     0.03500
C1317       C  0.21838340  0.86204039  0.59563970     0.03500
C1318       C  0.25350466  0.84880419  0.61942442    -0.17000
H1319       H  0.25382223  0.82760983  0.61924364     0.05500
H1320       H  0.25256817  0.92439457  0.62029779     0.05500
C1321       C  0.71912195  0.88902860  0.64960095     0.03500
C1322       C  0.71855050  0.86145063  0.64878000     0.03500
C1323       C  0.75369621  0.84793784  0.62514403    -0.17000
C1324       C  0.78924209  0.86123273  0.60179859     0.03500
C1325       C  0.78934947  0.88886803  0.60210021     0.03500
C1326       C  0.75447476  0.90234836  0.62613286    -0.17000
H1327       H  0.75476905  0.92353727  0.62645393     0.05500
H1328       H  0.75323286  0.82675370  0.62474487     0.05500
C1329       C  0.82428991  0.90443414  0.57904704    -0.12000
C1330       C  0.85125121  0.92016774  0.56309880    -0.13600
C1331       C  0.15386929  0.92030563  0.55906702    -0.12000
C1332       C  0.18214202  0.90496246  0.57398027    -0.13600
C1333       C  0.97559720  0.61635170  0.55243948    -0.15200
C1334       C  0.00511757  0.63235087  0.57417079    -0.30400
H1335       H  0.94919597  0.62495359  0.53049824     0.13800
H1336       H  0.05206977  0.62677894  0.01291653     0.14400
C1337       C  0.99253053  0.87101343  0.92857617    -0.15200
C1338       C  0.97423807  0.88599942  0.96078236    -0.30400
H1339       H  0.00891864  0.87937001  0.89906488     0.13800
H1340       H  0.95418679  0.87148928  0.47865347     0.14400
C1341       C  0.82468745  0.84556769  0.57900223    -0.12000
C1342       C  0.85232878  0.82995892  0.56327682    -0.13600
C1343       C  0.15597457  0.83050969  0.55708242    -0.12000
C1344       C  0.18334754  0.84630054  0.57257818    -0.13600
C1345       C  0.18046928  0.65640078  0.90992047    -0.12000
C1346       C  0.15366710  0.67296434  0.92360411    -0.13600
C1347       C  0.17950302  0.59755869  0.91597346    -0.12000
C1348       C  0.15146761  0.58247127  0.93235804    -0.13600
C1349       C  0.65626975  0.91970943  0.68956110    -0.12000
C1350       C  0.68401673  0.90453228  0.67298008    -0.13600
C1351       C  0.32340741  0.90546219  0.66723447    -0.12000
C1352       C  0.35120375  0.92061131  0.68401167    -0.13600
C1353       C  0.35271685  0.57841861  0.81502581    -0.12000
C1354       C  0.32403137  0.59427119  0.82780364    -0.13600
C1355       C  0.50861962  0.63264814  0.67970623    -0.15200
C1356       C  0.52905752  0.61738876  0.71037677    -0.30400
H1357       H  0.49068261  0.62450513  0.65079809     0.13800
H1358       H  0.54688390  0.62634985  0.73875255     0.14400
C1359       C  0.47289018  0.86730694  0.79800571    -0.15200
C1360       C  0.50093492  0.88301335  0.82188587    -0.30400
H1361       H  0.44861654  0.87606652  0.77413368     0.13800
H1362       H  0.52633340  0.87518888  0.84553527     0.14400
C1363       C  0.68210472  0.84612729  0.67017983    -0.12000
C1364       C  0.65322038  0.83088950  0.68440747    -0.13600
C1365       C  0.35024958  0.83068238  0.68063876    -0.12000
C1366       C  0.32323557  0.84677059  0.66610987    -0.13600
C1367       C  0.34910755  0.66817724  0.80181624    -0.12000
C1368       C  0.32191100  0.65277558  0.81852381    -0.13600
C1369       C  0.84830924  0.58352748  0.93915189    -0.12000
C1370       C  0.82084732  0.59863952  0.92221647    -0.13600
C1371       C  0.85135109  0.67245861  0.92937985    -0.12000
C1372       C  0.82271449  0.65689058  0.91582004    -0.13600
C1373       C  0.65408985  0.57957670  0.81565028    -0.12000
C1374       C  0.68041105  0.59627842  0.82954201    -0.13600
C1375       C  0.67923386  0.65522771  0.82650287    -0.12000
C1376       C  0.65146810  0.67064972  0.81071400    -0.13600
loop_ 
_geom_bond_atom_site_label_1 
_geom_bond_atom_site_label_2 
_geom_bond_distance 
_geom_bond_site_symmetry_2 
_ccdc_geom_bond_type 
C1            C2   1.415       .  A
C1            C6   1.400       .  A
C1          C342   1.448       .  S
C2            C3   1.407       .  A
C2          C343   1.455       .  S
C3            C4   1.407       .  A
C3            H8   1.085       .  S
C4            C5   1.417       .  A
C4          C340   1.455       .  S
C5            C6   1.400       .  A
C5          C338   1.450       .  S
C6            H7   1.086       .  S
Zr9          O10   2.436       .  S
Zr9          O11   2.389       .  S
Zr9          O12   2.415       .  S
Zr9          O15   2.424       .  S
Zr9          O17   2.376       .  S
Zr9          O18   2.379       .  S
Zr9          O19   2.396       .  S
Zr9          O20   2.391       .  S
O10          H66   0.990       .  S
O10          H74   0.990       .  S
O11          C31   1.276       .  A
O12          C33   1.280       .  A
O13         Zr23   2.456       .  S
O13          C32   1.288       .  A
O14         Zr22   2.460       .  S
O14          C33   1.289       .  A
O15          C32   1.282       .  A
O16         Zr24   2.441       .  S
O16          C31   1.284       .  A
O17         Zr22   2.382       .  S
O17         Zr24   2.369       .  S
O18         Zr23   2.391       .  S
O18         Zr24   2.372       .  S
O18          H53   0.966       .  S
O19         Zr22   2.401       .  S
O19         Zr39   2.393       .  S
O19          H56   0.966       .  S
O20         Zr23   2.399       .  S
O20         Zr39   2.400       .  S
Zr21         O46   2.441       .  S
Zr21         O40   2.412       .  S
Zr21         O48   2.428       .  S
Zr21         O36   2.420       .  S
Zr21         O27   2.398       .  S
Zr21         O28   2.402       .  S
Zr21         O29   2.379       .  S
Zr21         O30   2.376       .  S
Zr22         O41   2.436       .  S
Zr22         O34   2.434       .  S
Zr22         O35   2.455       .  S
Zr22         O28   2.402       .  S
Zr22         O29   2.389       .  S
Zr23         O25   2.434       .  S
Zr23         O47   2.436       .  S
Zr23         O49   2.461       .  S
Zr23         O27   2.395       .  S
Zr23         O30   2.387       .  S
Zr24         O50   2.436       .  S
Zr24         O51   2.436       .  S
Zr24         O26   2.436       .  S
Zr24         O27   2.403       .  S
Zr24         O28   2.400       .  S
O25          H62   0.990       .  S
O26          H57   0.990       .  S
O26          H71   0.990       .  S
O28          H54   0.966       .  S
O29         Zr39   2.377       .  S
O30         Zr39   2.385       .  S
O30          H55   0.966       .  S
C31         C327   1.456       .  S
C32         C332   1.442       .  S
C33         C333   1.441       .  S
O34          H70   0.990       .  S
O35          C37   1.288       .  A
O36          C37   1.281       .  A
C37         C335   1.441       .  S
O38         Zr39   2.439       .  S
O38          H67   0.990       .  S
Zr39         O42   2.437       .  S
Zr39         O43   2.439       .  S
Zr39         O44   2.426       .  S
O40          C45   1.284       .  A
O41          H58   0.990       .  S
O41          H73   0.990       .  S
O42          H59   0.990       .  S
O43          H63   0.990       .  S
O43          H72   0.990       .  S
O44          C45   1.280       .  A
C45         C323   1.470       .  S
O46          H65   0.990       .  S
O46          H69   0.990       .  S
O47          H61   0.990       .  S
O47          H68   0.990       .  S
O48          C52   1.282       .  A
O49          C52   1.289       .  A
O50          H60   0.990       .  S
O51          H64   0.990       .  S
C52         C344   1.448       .  S
Zr75         O76   2.436       .  S
Zr75         O77   2.389       .  S
Zr75         O78   2.414       .  S
Zr75         O81   2.421       .  S
Zr75         O83   2.374       .  S
Zr75         O84   2.381       .  S
Zr75         O85   2.396       .  S
Zr75         O86   2.391       .  S
O76         H132   0.990       .  S
O76         H140   0.990       .  S
O77          C97   1.276       .  A
O78          C99   1.280       .  A
O79         Zr89   2.455   1_545  S
O79          C98   1.288       .  A
O80         Zr88   2.463   1_545  S
O80          C99   1.290       .  A
O81          C98   1.282       .  A
O82         Zr90   2.442       .  S
O82          C97   1.284       .  A
O83         Zr88   2.381   1_545  S
O83         Zr90   2.368       .  S
O84         Zr89   2.392   1_545  S
O84         Zr90   2.371       .  S
O84         H119   0.966       .  S
O85         Zr88   2.401   1_545  S
O85        Zr793   2.395   1_545  S
O85         H122   0.966       .  S
O86         Zr89   2.400   1_545  S
O86        Zr793   2.400   1_545  S
Zr87        O112   2.441       .  S
Zr87        O106   2.413       .  S
Zr87        O114   2.421       .  S
Zr87        O102   2.416       .  S
Zr87         O93   2.399       .  S
Zr87         O94   2.401       .  S
Zr87         O95   2.377       .  S
Zr87         O96   2.376       .  S
Zr88        O100   2.434   1_565  S
Zr88        O795   2.436       .  S
Zr88        O789   2.458       .  S
Zr88        O782   2.402       .  S
Zr88        O783   2.388       .  S
Zr89        O113   2.436   1_565  S
Zr89        O779   2.434       .  S
Zr89        O803   2.461       .  S
Zr89        O781   2.396       .  S
Zr89        O784   2.385       .  S
Zr90        O116   2.435       .  S
Zr90        O117   2.436       .  S
Zr90         O92   2.436       .  S
Zr90        O781   2.403   1_545  S
Zr90        O782   2.400   1_545  S
O91        Zr777   2.434       .  S
O91         H128   0.990       .  S
O92         H123   0.990       .  S
O92         H137   0.990       .  S
O93        Zr777   2.396       .  S
O93        Zr778   2.404       .  S
O94        Zr776   2.402       .  S
O94        Zr778   2.402       .  S
O94         H120   0.966       .  S
O95        Zr105   2.379       .  S
O95        Zr776   2.387       .  S
O96        Zr105   2.382       .  S
O96        Zr777   2.387       .  S
O96         H121   0.966       .  S
C97         C324   1.456       .  S
C98         C321   1.439       .  S
C99         C341   1.442       .  S
O100        H136   0.990       .  S
O101       Zr776   2.454       .  S
O101        C103   1.288       .  A
O102        C103   1.280       .  A
C103        C317   1.439       .  S
O104       Zr105   2.439       .  S
O104        H133   0.990       .  S
Zr105       O108   2.437       .  S
Zr105       O109   2.439       .  S
Zr105       O110   2.425       .  S
Zr105       O773   2.394       .  S
Zr105       O774   2.399       .  S
O106        C111   1.284       .  A
O107       Zr776   2.436       .  S
O107        H124   0.990       .  S
O107        H139   0.990       .  S
O108        H125   0.990       .  S
O109        H129   0.990       .  S
O109        H138   0.990       .  S
O110        C111   1.280       .  A
C111        C328   1.471       .  S
O112        H131   0.990       .  S
O112        H135   0.990       .  S
O113        H127   0.990       .  S
O113        H134   0.990       .  S
O114        C118   1.281       .  A
O115       Zr777   2.459       .  S
O115        C118   1.289       .  A
O116        H126   0.990       .  S
O117        H130   0.990   1_545  S
C118        C320   1.442       .  S
C141        C142   1.412       .  A
C141        C146   1.400       .  A
C141        C322   1.446       .  S
C142        C143   1.403       .  A
C142        C336   1.448       .  S
C143        C144   1.403       .  A
C143        H148   1.086       .  S
C144        C145   1.414       .  A
C144        C313   1.448       .  S
C145        C146   1.401       .  A
C145        C315   1.447       .  S
C146        H147   1.086       .  S
Zr149       O150   2.440       .  S
Zr149       O151   2.403       .  S
Zr149       O152   2.419       .  S
Zr149       O155   2.425   1_455  S
Zr149       O157   2.379       .  S
Zr149       O159   2.401       .  S
Zr149       O160   2.395   1_455  S
Zr149       O502   2.377   1_455  S
O150        H206   0.990       .  S
O150        H214   0.990       .  S
O151        C515   1.282       .  A
O152        C173   1.280       .  A
O153       Zr163   2.466       .  S
O153        C172   1.290       .  A
O154       Zr162   2.458       .  S
O154        C173   1.288       .  A
O155        C172   1.282       .  A
O156       Zr164   2.422       .  S
O156        C171   1.279   1_455  A
O157       Zr162   2.389       .  S
O157       Zr508   2.381       .  S
O158       Zr164   2.378   1_655  S
O158       Zr493   2.378   1_654  S
O158       Zr507   2.385   1_554  S
O158        H193   0.966       .  S
O159       Zr162   2.402       .  S
O159       Zr179   2.402       .  S
O159        H196   0.966       .  S
O160       Zr163   2.395       .  S
O160       Zr179   2.404   1_655  S
Zr161       O186   2.442       .  S
Zr161       O180   2.404   1_554  S
Zr161       O188   2.425   1_455  S
Zr161       O176   2.418       .  S
Zr161       O167   2.393   1_455  S
Zr161       O168   2.397       .  S
Zr161       O513   2.378   1_554  S
Zr161       O514   2.378   1_454  S
Zr162       O181   2.437       .  S
Zr162       O518   2.435       .  S
Zr162       O519   2.457       .  S
Zr162       O169   2.381       .  S
Zr162       O512   2.400       .  S
Zr163       O165   2.434       .  S
Zr163       O531   2.436       .  S
Zr163       O533   2.452       .  S
Zr163       O170   2.392       .  S
Zr163       O502   2.385       .  S
Zr163       O511   2.400       .  S
Zr164       O190   2.435   1_455  S
Zr164       O191   2.436       .  S
Zr164       O166   2.436       .  S
Zr164       O167   2.398   1_455  S
Zr164       O168   2.392       .  S
Zr164       O501   2.380       .  S
O165        H202   0.990       .  S
O166        H197   0.990       .  S
O166        H211   0.990       .  S
O167       Zr507   2.399   1_554  S
O168       Zr506   2.399   1_554  S
O168        H194   0.966       .  S
O169       Zr179   2.367       .  S
O169       Zr505   2.374       .  S
O170       Zr179   2.375   1_655  S
O170       Zr505   2.379   1_655  S
O170        H195   0.965       .  S
C171        O495   1.283   1_655  A
C171        C302   1.469       .  S
C172        C339   1.450       .  S
C173        C314   1.441       .  S
O174       Zr506   2.435   1_554  S
O174        H210   0.990       .  S
O175       Zr506   2.454   1_554  S
O175        C177   1.289       .  A
O176        C177   1.281       .  A
C177        C311   1.439       .  S
O178       Zr179   2.438       .  S
O178        H207   0.990       .  S
Zr179       O182   2.438       .  S
Zr179       O183   2.437   1_455  S
Zr179       O184   2.444       .  S
O180        C529   1.282   1_455  A
O181        H198   0.990       .  S
O181        H213   0.990       .  S
O182        H199   0.990       .  S
O183        H203   0.990       .  S
O183        H212   0.990       .  S
O184        C185   1.284       .  A
C185        O524   1.275       .  A
C185        C305   1.456       .  S
O186        H205   0.990   1_455  S
O186        H209   0.990       .  S
O187       Zr507   2.437   1_554  S
O187        H201   0.990       .  S
O187        H208   0.990       .  S
O188        C192   1.282       .  A
O189       Zr507   2.451   1_554  S
O189        C192   1.287       .  A
O190        H200   0.990       .  S
O191        H204   0.990   1_455  S
C192        C310   1.441       .  S
Zr215       O216   2.437       .  S
Zr215       O217   2.397   1_454  S
Zr215       O218   2.419   1_455  S
Zr215       O221   2.425       .  S
Zr215       O225   2.396   1_455  S
Zr215       O226   2.392       .  S
Zr215       O567   2.375   1_454  S
Zr215       O568   2.381   1_554  S
O216        H272   0.990   1_455  S
O216        H280   0.990   1_455  S
O217        C581   1.278       .  A
O218        C239   1.281       .  A
O219      Zr1261   2.454   1_554  S
O219        C238   1.288       .  A
O220      Zr1260   2.457       .  S
O220        C239   1.289       .  A
O221        C238   1.283       .  A
O222       Zr230   2.421   1_655  S
O222        C237   1.278       .  A
O223       Zr230   2.380   1_655  S
O223       Zr559   2.378   1_655  S
O223       Zr916   2.392       .  S
O224       Zr230   2.381       .  S
O224       Zr559   2.376       .  S
O224       Zr917   2.390       .  S
O224        H259   0.966       .  S
O225      Zr1260   2.401       .  S
O225       Zr933   2.390   1_655  S
O225        H262   0.966       .  S
O226      Zr1261   2.399   1_554  S
O226       Zr933   2.397       .  S
Zr227       O252   2.438       .  S
Zr227       O246   2.385   1_455  S
Zr227       O254   2.423       .  S
Zr227       O242   2.411   1_455  S
Zr227       O233   2.392       .  S
Zr227       O234   2.396   1_455  S
Zr227       O236   2.379       .  S
Zr227       O579   2.374   1_455  S
Zr228       O591   2.437   1_565  S
Zr228       O928   2.435       .  S
Zr228       O241   2.469   1_565  S
Zr228      O1252   2.463       .  S
Zr228       O234   2.403   1_565  S
Zr228       O911   2.384       .  S
Zr228      O1257   2.405       .  S
Zr228       O579   2.375   1_565  S
Zr229       O575   2.434   1_565  S
Zr229       O941   2.435       .  S
Zr229       O255   2.458   1_565  S
Zr229      O1251   2.454       .  S
Zr229       O233   2.398   1_565  S
Zr229       O236   2.387   1_565  S
Zr229       O912   2.392       .  S
Zr229      O1258   2.397       .  S
Zr230       O256   2.435       .  S
Zr230       O257   2.436       .  S
Zr230       O232   2.437   1_455  S
Zr230       O921   2.397       .  S
Zr230       O922   2.393   1_455  S
O231       Zr573   2.434       .  S
O231        H268   0.990       .  S
O232        H263   0.990       .  S
O232        H277   0.990       .  S
O233       Zr918   2.401   1_545  S
O234       Zr918   2.401   1_645  S
O234        H260   0.966       .  S
O235       Zr245   2.370   1_655  S
O235       Zr571   2.373   1_654  S
O235       Zr572   2.379       .  S
O236       Zr589   2.376       .  S
O236        H605   0.965       .  S
C237        O561   1.284   1_655  A
C237        C306   1.470   1_655  S
C238        C299   1.442       .  S
C239        C298   1.441       .  S
O240       Zr916   2.434       .  S
O240        H276   0.990       .  S
O241        C243   1.291       .  A
O242        C243   1.279       .  A
C243        C337   1.444       .  S
O244       Zr245   2.440       .  S
O244        H273   0.990       .  S
Zr245       O248   2.437   1_455  S
Zr245       O249   2.441       .  S
Zr245       O250   2.436   1_455  S
Zr245       O913   2.400   1_445  S
Zr245       O914   2.402   1_545  S
Zr245       O580   2.378       .  S
O246        C595   1.275       .  A
O247       Zr572   2.438       .  S
O247        H264   0.990       .  S
O247        H279   0.990       .  S
O248        H265   0.990       .  S
O249        H269   0.990       .  S
O249        H278   0.990       .  S
O250        C251   1.283       .  A
C251        O590   1.276   1_554  A
C251        C301   1.454       .  S
O252        H271   0.990       .  S
O252        H275   0.990   1_455  S
O253       Zr917   2.436       .  S
O253        H267   0.990       .  S
O253        H274   0.990       .  S
O254        C258   1.282       .  A
O255        C258   1.289       .  A
O256        H266   0.990       .  S
O257        H270   0.990   1_455  S
C258        C316   1.441       .  S
H261        O580   0.965       .  S
C281        C282   1.414       .  A
C281        C286   1.401       .  A
C281        C334   1.448       .  S
C282        C283   1.404       .  A
C282        C319   1.449       .  S
C283        C284   1.403       .  A
C283        H288   1.085       .  S
C284        C285   1.412       .  A
C284        C300   1.449       .  S
C285        C286   1.401       .  A
C285        C312   1.446       .  S
C286        H287   1.086       .  S
C289        C290   1.413       .  A
C289        C294   1.402       .  A
C289        C318   1.446       .  S
C290        C291   1.403       .  A
C290        C331   1.450       .  S
C291        C292   1.403       .  A
C291        H296   1.085       .  S
C292        C293   1.413       .  A
C292        C309   1.448       .  S
C293        C294   1.401       .  A
C293        C297   1.448       .  S
C294        H295   1.086       .  S
C297        C298   1.210       .  T
C299        C300   1.210       .  T
C301        C302   1.337       .  D
C301        H303   1.089       .  S
C302        H648   1.086   1_655  S
H304        C646   1.086       .  S
C305        C306   1.337       .  D
C305        H307   1.089       .  S
C306        H652   1.086   1_455  S
H308        C650   1.089       .  S
C309        C310   1.210       .  T
C311        C312   1.208       .  T
C313        C314   1.210       .  T
C315        C316   1.209       .  T
C317        C318   1.208       .  T
C319        C320   1.210       .  T
C321        C322   1.209       .  T
C323        C324   1.338       .  D
C323        H325   1.086       .  S
C324        H326   1.089       .  S
C327        C328   1.337       .  D
C327        H329   1.089       .  S
C328        H330   1.086       .  S
C331        C332   1.210       .  T
C333        C334   1.210       .  T
C335        C336   1.209       .  T
C337        C338   1.212       .  T
C339        C340   1.214       .  T
C341        C342   1.210       .  T
C343        C344   1.214       .  T
C345        C346   1.412       .  A
C345        C350   1.399       .  A
C345        C686   1.447       .  S
C346        C347   1.404       .  A
C346        C687   1.447       .  S
C347        C348   1.404       .  A
C347        H352   1.085       .  S
C348        C349   1.414       .  A
C348        C684   1.451       .  S
C349        C350   1.400       .  A
C349        C682   1.445       .  S
C350        H351   1.086       .  S
Zr353       O354   2.440       .  S
Zr353       O355   2.412       .  S
Zr353       O356   2.421       .  S
Zr353       O359   2.422       .  S
Zr353       O361   2.377       .  S
Zr353       O362   2.376       .  S
Zr353       O363   2.401       .  S
Zr353       O364   2.398       .  S
O354        H410   0.990       .  S
O354        H418   0.990       .  S
O355        C375   1.284       .  A
O356        C377   1.280       .  A
O357       Zr367   2.459       .  S
O357        C376   1.289       .  A
O358       Zr366   2.461       .  S
O358        C377   1.289       .  A
O359        C376   1.281       .  A
O360       Zr368   2.420       .  S
O360        C375   1.278       .  A
O361       Zr366   2.389       .  S
O361       Zr368   2.379       .  S
O362       Zr367   2.385       .  S
O362       Zr368   2.379       .  S
O362        H397   0.966       .  S
O363       Zr366   2.398       .  S
O363       Zr383   2.402       .  S
O363        H400   0.966       .  S
O364       Zr367   2.394       .  S
O364       Zr383   2.407       .  S
Zr365       O390   2.442       .  S
Zr365       O384   2.407       .  S
Zr365       O392   2.424       .  S
Zr365       O380   2.419       .  S
Zr365       O371   2.392       .  S
Zr365       O372   2.398       .  S
Zr365       O373   2.378       .  S
Zr365       O374   2.377       .  S
Zr366       O385   2.434       .  S
Zr366       O378   2.436       .  S
Zr366       O379   2.453       .  S
Zr366       O372   2.399       .  S
Zr366       O373   2.391       .  S
Zr367       O369   2.435       .  S
Zr367       O391   2.436       .  S
Zr367       O393   2.449       .  S
Zr367       O371   2.398       .  S
Zr367       O374   2.389       .  S
Zr368       O394   2.435       .  S
Zr368       O395   2.436       .  S
Zr368       O370   2.436       .  S
Zr368       O371   2.395       .  S
Zr368       O372   2.389       .  S
O369        H406   0.990       .  S
O370        H401   0.990       .  S
O370        H415   0.990       .  S
O372        H398   0.966       .  S
O373       Zr383   2.375       .  S
O374       Zr383   2.379       .  S
O374        H399   0.966       .  S
C375        C671   1.469       .  S
C376        C676   1.444       .  S
C377        C677   1.444       .  S
O378        H414   0.990       .  S
O379        C381   1.288       .  A
O380        C381   1.281       .  A
C381        C679   1.439       .  S
O382       Zr383   2.439       .  S
O382        H411   0.990       .  S
Zr383       O386   2.437       .  S
Zr383       O387   2.438       .  S
Zr383       O388   2.443       .  S
O384        C389   1.282       .  A
O385        H402   0.990       .  S
O385        H417   0.990       .  S
O386        H403   0.990       .  S
O387        H407   0.990       .  S
O387        H416   0.989       .  S
O388        C389   1.283       .  A
C389        C667   1.476       .  S
O390        H409   0.990       .  S
O390        H413   0.990       .  S
O391        H405   0.990       .  S
O391        H412   0.990       .  S
O392        C396   1.281       .  A
O393        C396   1.287       .  A
O394        H404   0.990       .  S
O395        H408   0.990       .  S
C396        C688   1.440       .  S
Zr419       O420   2.439       .  S
Zr419       O421   2.399       .  S
Zr419       O422   2.417       .  S
Zr419       O425   2.425       .  S
Zr419       O427   2.377       .  S
Zr419       O428   2.380       .  S
Zr419       O429   2.398       .  S
Zr419       O430   2.393       .  S
O420        H476   0.990       .  S
O420        H484   0.990       .  S
O421        C441   1.278       .  A
O422        C443   1.280       .  A
O423       Zr433   2.458   1_545  S
O423        C442   1.289       .  A
O424       Zr432   2.457   1_545  S
O424        C443   1.288       .  A
O425        C442   1.282       .  A
O426       Zr434   2.448       .  S
O426        C441   1.285       .  A
O427       Zr432   2.386   1_545  S
O427       Zr434   2.372       .  S
O428       Zr433   2.393   1_545  S
O428       Zr434   2.371       .  S
O428        H463   0.966       .  S
O429       Zr432   2.401   1_545  S
O429      Zr1137   2.393   1_545  S
O429        H466   0.966       .  S
O430       Zr433   2.399   1_545  S
O430      Zr1137   2.401   1_545  S
Zr431       O456   2.439       .  S
Zr431       O450   2.392       .  S
Zr431       O458   2.424       .  S
Zr431       O446   2.415       .  S
Zr431       O437   2.393       .  S
Zr431       O438   2.395       .  S
Zr431       O439   2.374       .  S
Zr431       O440   2.379       .  S
Zr432      O1139   2.436       .  S
Zr432       O444   2.435   1_565  S
Zr432      O1133   2.457       .  S
Zr432      O1126   2.400       .  S
Zr432      O1127   2.389       .  S
Zr433      O1123   2.434       .  S
Zr433       O457   2.436   1_565  S
Zr433      O1147   2.462       .  S
Zr433      O1125   2.396       .  S
Zr433      O1128   2.389       .  S
Zr434       O460   2.435       .  S
Zr434       O461   2.436       .  S
Zr434       O436   2.436       .  S
Zr434      O1125   2.405   1_545  S
Zr434      O1126   2.404   1_545  S
O435      Zr1121   2.434       .  S
O435        H472   0.990       .  S
O436        H467   0.990       .  S
O436        H481   0.990       .  S
O437      Zr1121   2.399       .  S
O437      Zr1122   2.398       .  S
O438      Zr1120   2.404       .  S
O438      Zr1122   2.398       .  S
O438        H464   0.966       .  S
O439      Zr1120   2.379       .  S
O439       Zr449   2.373       .  S
O440      Zr1121   2.391       .  S
O440       Zr449   2.378       .  S
O440        H465   0.965       .  S
C441        C668   1.463       .  S
C442        C665   1.443       .  S
C443        C685   1.439       .  S
O444        H480   0.990       .  S
O445      Zr1120   2.461       .  S
O445        C447   1.289       .  A
O446        C447   1.280       .  A
C447        C661   1.441       .  S
O448       Zr449   2.439       .  S
O448        H477   0.990       .  S
Zr449       O452   2.437       .  S
Zr449       O453   2.439       .  S
Zr449       O454   2.436       .  S
Zr449      O1117   2.399       .  S
Zr449      O1118   2.401       .  S
O450        C455   1.276       .  A
O451      Zr1120   2.438       .  S
O451        H468   0.990       .  S
O451        H483   0.990       .  S
O452        H469   0.990       .  S
O453        H473   0.990       .  S
O453        H482   0.989       .  S
O454        C455   1.283       .  A
C455        C672   1.454       .  S
O456        H475   0.990       .  S
O456        H479   0.990       .  S
O457        H471   0.990       .  S
O457        H478   0.990       .  S
O458        C462   1.282       .  A
O459      Zr1121   2.448       .  S
O459        C462   1.287       .  A
O460        H470   0.990       .  S
O461        H474   0.990   1_545  S
C462        C664   1.438       .  S
C485        C486   1.413       .  A
C485        C490   1.402       .  A
C485        C666   1.451       .  S
C486        C487   1.403       .  A
C486        C680   1.447       .  S
C487        C488   1.403       .  A
C487        H492   1.086       .  S
C488        C489   1.414       .  A
C488        C657   1.452       .  S
C489        C490   1.403       .  A
C489        C659   1.448       .  S
C490        H491   1.086       .  S
Zr493       O494   2.439   1_455  S
Zr493       O495   2.411   1_556  S
Zr493       O496   2.426       .  S
Zr493       O499   2.422   1_455  S
Zr493       O501   2.376   1_556  S
Zr493       O503   2.401       .  S
Zr493       O504   2.398   1_455  S
O494        H550   0.990   1_655  S
O494        H558   0.990   1_655  S
O496        C517   1.281       .  A
O497       Zr507   2.458       .  S
O497        C516   1.289       .  A
O498       Zr506   2.458       .  S
O498        C517   1.288       .  A
O499        C516   1.281       .  A
O500       Zr508   2.416       .  S
O500        C515   1.277       .  A
O501       Zr506   2.391   1_554  S
O502       Zr508   2.383   1_655  S
O502        H537   0.966       .  S
O503       Zr506   2.399       .  S
O503       Zr523   2.400       .  S
O503        H540   0.966       .  S
O504       Zr507   2.396       .  S
O504       Zr523   2.405   1_655  S
Zr505       O530   2.438       .  S
Zr505       O524   2.388       .  S
Zr505       O532   2.424   1_455  S
Zr505       O520   2.408       .  S
Zr505       O511   2.388   1_455  S
Zr505       O512   2.395       .  S
Zr506       O525   2.436       .  S
Zr506       O513   2.390       .  S
Zr507       O509   2.433       .  S
Zr507       O514   2.387       .  S
Zr508       O534   2.435   1_455  S
Zr508       O535   2.437       .  S
Zr508       O510   2.437       .  S
Zr508       O511   2.396   1_455  S
Zr508       O512   2.391       .  S
O509        H546   0.990       .  S
O510        H541   0.990       .  S
O510        H555   0.990       .  S
O512        H538   0.966       .  S
O513       Zr523   2.374       .  S
O514       Zr523   2.380   1_655  S
O514        H539   0.966       .  S
C515        C646   1.466       .  S
C516        C683   1.444       .  S
C517        C658   1.445       .  S
O518        H554   0.990       .  S
O519        C521   1.289       .  A
O520        C521   1.279       .  A
C521        C655   1.436       .  S
O522       Zr523   2.440       .  S
O522        H551   0.990       .  S
Zr523       O526   2.437       .  S
Zr523       O527   2.438   1_455  S
Zr523       O528   2.441       .  S
O525        H542   0.990       .  S
O525        H557   0.990       .  S
O526        H543   0.990       .  S
O527        H547   0.990       .  S
O527        H556   0.990       .  S
O528        C529   1.283   1_455  A
C529        C649   1.475       .  S
O530        H549   0.990   1_455  S
O530        H553   0.990       .  S
O531        H545   0.990       .  S
O531        H552   0.990       .  S
O532        C536   1.282       .  A
O533        C536   1.288       .  A
O534        H544   0.990       .  S
O535        H548   0.990       .  S
C536        C654   1.440       .  S
Zr559       O560   2.440       .  S
Zr559       O561   2.420       .  S
Zr559       O562   2.422   1_455  S
Zr559       O565   2.425       .  S
Zr559       O569   2.404   1_455  S
Zr559       O570   2.400       .  S
O560        H616   0.990   1_455  S
O560        H624   0.990   1_455  S
O562        C583   1.280       .  A
O563       Zr917   2.464       .  S
O563        C582   1.290       .  A
O564       Zr916   2.456       .  S
O564        C583   1.288       .  A
O565        C582   1.282       .  A
O566       Zr574   2.445       .  S
O566        C581   1.284       .  A
O567      Zr1260   2.386   1_556  S
O567       Zr574   2.371       .  S
O568      Zr1261   2.394       .  S
O568       Zr574   2.372   1_455  S
O568        H603   0.966       .  S
O569       Zr916   2.402       .  S
O569      Zr1277   2.402       .  S
O569        H606   0.966       .  S
O570       Zr917   2.392       .  S
O570      Zr1277   2.406   1_455  S
Zr571       O596   2.438       .  S
Zr571       O590   2.389   1_455  S
Zr571       O598   2.424       .  S
Zr571       O586   2.412   1_455  S
Zr571       O577   2.391       .  S
Zr571       O578   2.396   1_455  S
Zr571       O580   2.381   1_556  S
Zr572      O1272   2.435   1_544  S
Zr572       O908   2.463   1_545  S
Zr572       O585   2.457   1_554  S
Zr572      O1255   2.377   1_544  S
Zr572       O913   2.404   1_545  S
Zr572       O578   2.405   1_554  S
Zr573      O1285   2.436   1_544  S
Zr573       O907   2.461   1_545  S
Zr573       O599   2.458   1_554  S
Zr573      O1256   2.389   1_544  S
Zr573       O914   2.397   1_545  S
Zr573       O577   2.397   1_554  S
Zr573       O580   2.392       .  S
Zr574       O600   2.436   1_655  S
Zr574       O601   2.435   1_655  S
Zr574       O576   2.435       .  S
Zr574      O1265   2.404   1_655  S
Zr574      O1266   2.403       .  S
O575        H612   0.990       .  S
O576        H607   0.990       .  S
O576        H621   0.990       .  S
O577      Zr1262   2.395   1_545  S
O578      Zr1262   2.396   1_645  S
O578        H604   0.966       .  S
O579       Zr589   2.370   1_655  S
C581        C650   1.461       .  S
C582        C643   1.449       .  S
C583        C642   1.441       .  S
O584      Zr1260   2.434   1_556  S
O584        H620   0.990       .  S
O585        C587   1.289       .  A
O586        C587   1.280       .  A
C587        C681   1.439       .  S
O588       Zr589   2.439       .  S
O588        H617   0.990       .  S
Zr589       O592   2.436   1_455  S
Zr589       O593   2.439       .  S
Zr589       O594   2.427   1_455  S
Zr589      O1257   2.393   1_445  S
Zr589      O1258   2.396   1_545  S
O591        H608   0.990       .  S
O591        H623   0.990       .  S
O592        H609   0.990       .  S
O593        H613   0.990       .  S
O593        H622   0.989       .  S
O594        C595   1.282       .  A
C595        C645   1.449       .  S
O596        H615   0.990       .  S
O596        H619   0.990   1_455  S
O597      Zr1261   2.435       .  S
O597        H611   0.990       .  S
O597        H618   0.990       .  S
O598        C602   1.282       .  A
O599        C602   1.289       .  A
O600        H610   0.990       .  S
O601        H614   0.990   1_455  S
C602        C660   1.442       .  S
C625        C626   1.412       .  A
C625        C630   1.399       .  A
C625        C678   1.451       .  S
C626        C627   1.405       .  A
C626        C663   1.445       .  S
C627        C628   1.403       .  A
C627        H632   1.085       .  S
C628        C629   1.415       .  A
C628        C644   1.455       .  S
C629        C630   1.402       .  A
C629        C656   1.443       .  S
C630        H631   1.086       .  S
C633        C634   1.415       .  A
C633        C638   1.402       .  A
C633        C662   1.448       .  S
C634        C635   1.403       .  A
C634        C675   1.450       .  S
C635        C636   1.403       .  A
C635        H640   1.086       .  S
C636        C637   1.412       .  A
C636        C653   1.448       .  S
C637        C638   1.401       .  A
C637        C641   1.449       .  S
C638        H639   1.086       .  S
C641        C642   1.210       .  T
C643        C644   1.214       .  T
C645        C646   1.336   1_655  D
C645        H647   1.089       .  S
C649        C650   1.341       .  D
C649        H651   1.086   1_655  S
C653        C654   1.209       .  T
C655        C656   1.207       .  T
C657        C658   1.212       .  T
C659        C660   1.210       .  T
C661        C662   1.210       .  T
C663        C664   1.207       .  T
C665        C666   1.211       .  T
C667        C668   1.341       .  D
C667        H669   1.086       .  S
C668        H670   1.089       .  S
C671        C672   1.337       .  D
C671        H673   1.086       .  S
C672        H674   1.089       .  S
C675        C676   1.211       .  T
C677        C678   1.211       .  T
C679        C680   1.209       .  T
C681        C682   1.208       .  T
C683        C684   1.212       .  T
C685        C686   1.209       .  T
C687        C688   1.209       .  T
C689        C690   1.415       .  A
C689        C694   1.400       .  A
C689       C1030   1.446       .  S
C690        C691   1.405       .  A
C690       C1031   1.453       .  S
C691        C692   1.405       .  A
C691        H696   1.085       .  S
C692        C693   1.413       .  A
C692       C1028   1.451       .  S
C693        C694   1.399       .  A
C693       C1026   1.447       .  S
C694        H695   1.086       .  S
Zr697       O698   2.438       .  S
Zr697       O699   2.389       .  S
Zr697       O700   2.415       .  S
Zr697       O703   2.428       .  S
Zr697       O705   2.376       .  S
Zr697       O706   2.380       .  S
Zr697       O707   2.396       .  S
Zr697       O708   2.392       .  S
O698        H754   0.990       .  S
O698        H762   0.990       .  S
O699        C719   1.276       .  A
O700        C721   1.280       .  A
O701       Zr711   2.455       .  S
O701        C720   1.288       .  A
O702       Zr710   2.460       .  S
O702        C721   1.289       .  A
O703        C720   1.283       .  A
O704       Zr712   2.439       .  S
O704        C719   1.283       .  A
O705       Zr710   2.383       .  S
O705       Zr712   2.370       .  S
O706       Zr711   2.390       .  S
O706       Zr712   2.371       .  S
O706        H741   0.966       .  S
O707       Zr710   2.400       .  S
O707       Zr727   2.394       .  S
O707        H744   0.966       .  S
O708       Zr711   2.399       .  S
O708       Zr727   2.399       .  S
Zr709       O734   2.443       .  S
Zr709       O728   2.414       .  S
Zr709       O736   2.426       .  S
Zr709       O724   2.426       .  S
Zr709       O715   2.400       .  S
Zr709       O716   2.402       .  S
Zr709       O717   2.379       .  S
Zr709       O718   2.377       .  S
Zr710       O729   2.436       .  S
Zr710       O722   2.434       .  S
Zr710       O723   2.458       .  S
Zr710       O716   2.402       .  S
Zr710       O717   2.388       .  S
Zr711       O713   2.433       .  S
Zr711       O735   2.436       .  S
Zr711       O737   2.461       .  S
Zr711       O715   2.396       .  S
Zr711       O718   2.387       .  S
Zr712       O738   2.436       .  S
Zr712       O739   2.435       .  S
Zr712       O714   2.436       .  S
Zr712       O715   2.402       .  S
Zr712       O716   2.400       .  S
O713        H750   0.990       .  S
O714        H745   0.990       .  S
O714        H759   0.990       .  S
O716        H742   0.966       .  S
O717       Zr727   2.382       .  S
O718       Zr727   2.383       .  S
O718        H743   0.966       .  S
C719       C1015   1.456       .  S
C720       C1020   1.443       .  S
C721       C1021   1.441       .  S
O722        H758   0.990       .  S
O723        C725   1.289       .  A
O724        C725   1.282       .  A
C725       C1023   1.445       .  S
O726       Zr727   2.440       .  S
O726        H755   0.990       .  S
Zr727       O730   2.437       .  S
Zr727       O731   2.440       .  S
Zr727       O732   2.425       .  S
O728        C733   1.284       .  A
O729        H746   0.990       .  S
O729        H761   0.990       .  S
O730        H747   0.990       .  S
O731        H751   0.990       .  S
O731        H760   0.990       .  S
O732        C733   1.280       .  A
C733       C1011   1.472       .  S
O734        H753   0.990       .  S
O734        H757   0.990       .  S
O735        H749   0.990       .  S
O735        H756   0.990       .  S
O736        C740   1.282       .  A
O737        C740   1.289       .  A
O738        H748   0.990       .  S
O739        H752   0.990       .  S
C740       C1032   1.446       .  S
Zr763       O764   2.437       .  S
Zr763       O765   2.387       .  S
Zr763       O766   2.410       .  S
Zr763       O769   2.421       .  S
Zr763       O771   2.374       .  S
Zr763       O772   2.381       .  S
Zr763       O773   2.395       .  S
Zr763       O774   2.390       .  S
O764        H820   0.990       .  S
O764        H828   0.990       .  S
O765        C785   1.276       .  A
O766        C787   1.279       .  A
O767       Zr777   2.453       .  S
O767        C786   1.288       .  A
O768       Zr776   2.461       .  S
O768        C787   1.290       .  A
O769        C786   1.281       .  A
O770       Zr778   2.445       .  S
O770        C785   1.284       .  A
O771       Zr776   2.381       .  S
O771       Zr778   2.368       .  S
O772       Zr777   2.391       .  S
O772       Zr778   2.372       .  S
O772        H807   0.966       .  S
O773       Zr776   2.400       .  S
O773        H810   0.966       .  S
O774       Zr777   2.398       .  S
Zr775       O800   2.441       .  S
Zr775       O794   2.407       .  S
Zr775       O802   2.425       .  S
Zr775       O790   2.417       .  S
Zr775       O781   2.396       .  S
Zr775       O782   2.401       .  S
Zr775       O783   2.378       .  S
Zr775       O784   2.377       .  S
Zr776       O788   2.434       .  S
Zr777       O801   2.436       .  S
Zr778       O804   2.436       .  S
Zr778       O805   2.436       .  S
Zr778       O780   2.437       .  S
O779        H816   0.990       .  S
O780        H811   0.990       .  S
O780        H825   0.990       .  S
O782        H808   0.966       .  S
O783       Zr793   2.379       .  S
O784       Zr793   2.382       .  S
O784        H809   0.966       .  S
C785       C1012   1.457       .  S
C786       C1009   1.439       .  S
C787       C1029   1.440       .  S
O788        H824   0.990       .  S
O789        C791   1.289       .  A
O790        C791   1.280       .  A
C791       C1005   1.441       .  S
O792       Zr793   2.440       .  S
O792        H821   0.990       .  S
Zr793       O796   2.436       .  S
Zr793       O797   2.440       .  S
Zr793       O798   2.426       .  S
O794        C799   1.283       .  A
O795        H812   0.990       .  S
O795        H827   0.990       .  S
O796        H813   0.990       .  S
O797        H817   0.990       .  S
O797        H826   0.990       .  S
O798        C799   1.279       .  A
C799       C1016   1.470       .  S
O800        H819   0.990       .  S
O800        H823   0.990       .  S
O801        H815   0.990       .  S
O801        H822   0.990       .  S
O802        C806   1.282       .  A
O803        C806   1.289       .  A
O804        H814   0.990       .  S
O805        H818   0.990       .  S
C806       C1008   1.446       .  S
C829        C830   1.413       .  A
C829        C834   1.401       .  A
C829       C1010   1.445       .  S
C830        C831   1.404       .  A
C830       C1024   1.452       .  S
C831        C832   1.405       .  A
C831        H836   1.085       .  S
C832        C833   1.412       .  A
C832       C1001   1.448       .  S
C833        C834   1.400       .  A
C833       C1003   1.448       .  S
C834        H835   1.086       .  S
Zr837       O838   2.440   1_455  S
Zr837       O839   2.411       .  S
Zr837       O840   2.425       .  S
Zr837       O843   2.424   1_455  S
Zr837       O845   2.380       .  S
Zr837      O1190   2.379   1_455  S
Zr837       O847   2.400       .  S
Zr837       O848   2.396   1_455  S
O838        H894   0.990   1_655  S
O838        H902   0.990   1_655  S
O839       C1203   1.282       .  A
O840        C861   1.281       .  A
O841       Zr851   2.457       .  S
O841        C860   1.289       .  A
O842       Zr850   2.453       .  S
O842        C861   1.287       .  A
O843        C860   1.282       .  A
O844       Zr852   2.440       .  S
O844        C859   1.284       .  A
O845       Zr850   2.397       .  S
O845      Zr1196   2.378       .  S
O846      Zr1181   2.381   1_654  S
O846      Zr1195   2.391   1_554  S
O846       Zr852   2.372   1_655  S
O846        H881   0.966       .  S
O847       Zr850   2.403       .  S
O847       Zr867   2.391       .  S
O847        H884   0.966       .  S
O848       Zr851   2.399       .  S
O848       Zr867   2.397   1_655  S
Zr849       O874   2.441       .  S
Zr849       O868   2.400   1_454  S
Zr849       O876   2.420   1_455  S
Zr849       O864   2.417       .  S
Zr849       O855   2.395   1_455  S
Zr849       O856   2.397       .  S
Zr849      O1201   2.377   1_554  S
Zr849      O1202   2.377   1_454  S
Zr850       O869   2.436       .  S
Zr850      O1206   2.435       .  S
Zr850      O1207   2.464       .  S
Zr850      O1200   2.397       .  S
Zr850       O857   2.385       .  S
Zr851       O853   2.434       .  S
Zr851      O1219   2.436       .  S
Zr851      O1221   2.468       .  S
Zr851      O1190   2.393       .  S
Zr851      O1199   2.395       .  S
Zr851       O858   2.384       .  S
Zr852       O878   2.435   1_455  S
Zr852       O879   2.436       .  S
Zr852       O854   2.436       .  S
Zr852      O1189   2.369       .  S
Zr852       O855   2.403   1_455  S
Zr852       O856   2.400       .  S
O853        H890   0.990       .  S
O854        H885   0.990       .  S
O854        H899   0.990       .  S
O855      Zr1195   2.395   1_554  S
O856      Zr1194   2.400   1_554  S
O856        H882   0.966       .  S
O857      Zr1193   2.376       .  S
O857       Zr867   2.379       .  S
O858      Zr1193   2.377   1_655  S
O858       Zr867   2.383   1_655  S
O858        H883   0.966       .  S
C859       O1183   1.275   1_554  A
C859        C990   1.453       .  S
C860       C1027   1.444       .  S
C861       C1002   1.440       .  S
O862      Zr1194   2.434   1_554  S
O862        H898   0.990       .  S
O863      Zr1194   2.467   1_554  S
O863        C865   1.291       .  A
O864        C865   1.280       .  A
C865        C999   1.445       .  S
O866       Zr867   2.439       .  S
O866        H895   0.990       .  S
Zr867       O870   2.437       .  S
Zr867       O871   2.439   1_455  S
Zr867       O872   2.424       .  S
O868       C1217   1.282       .  A
O869        H886   0.990       .  S
O869        H901   0.990       .  S
O870        H887   0.990       .  S
O871        H891   0.990       .  S
O871        H900   0.990       .  S
O872        C873   1.279       .  A
C873       O1212   1.283       .  A
C873        C993   1.470   1_455  S
O874        H893   0.990   1_455  S
O874        H897   0.990       .  S
O875      Zr1195   2.435   1_554  S
O875        H889   0.990       .  S
O875        H896   0.990       .  S
O876        C880   1.281       .  A
O877      Zr1195   2.464   1_554  S
O877        C880   1.290       .  A
O878        H888   0.990       .  S
O879        H892   0.990       .  S
C880        C998   1.446       .  S
Zr903       O904   2.438       .  S
Zr903       O905   2.388   1_455  S
Zr903       O906   2.419   1_455  S
Zr903       O909   2.425       .  S
Zr903      O1255   2.376   1_454  S
Zr903      O1256   2.382   1_554  S
Zr903       O913   2.396   1_455  S
Zr903       O914   2.395       .  S
O904        H960   0.990   1_455  S
O904        H968   0.990   1_455  S
O905       C1269   1.276   1_554  A
O906        C927   1.281       .  A
O907        C926   1.289       .  A
O908        C927   1.290       .  A
O909        C926   1.283       .  A
O910       Zr918   2.438   1_655  S
O910        C925   1.283       .  A
O911      Zr1247   2.377   1_655  S
O911       Zr918   2.373   1_655  S
O912      Zr1247   2.381       .  S
O912       Zr918   2.370       .  S
O912        H947   0.966       .  S
O913        H950   0.966       .  S
Zr915       O940   2.439       .  S
Zr915       O934   2.395   1_455  S
Zr915       O942   2.424       .  S
Zr915       O930   2.412   1_455  S
Zr915       O921   2.391       .  S
Zr915       O922   2.396   1_455  S
Zr915      O1267   2.375   1_455  S
Zr915       O924   2.379       .  S
Zr916      O1279   2.437       .  S
Zr916       O929   2.462       .  S
Zr916       O922   2.400       .  S
Zr916      O1267   2.382       .  S
Zr917      O1263   2.434       .  S
Zr917       O943   2.454       .  S
Zr917       O921   2.400       .  S
Zr917       O924   2.391       .  S
Zr918       O944   2.435       .  S
Zr918       O945   2.435       .  S
Zr918       O920   2.434   1_455  S
O919      Zr1261   2.434   1_554  S
O919        H956   0.990       .  S
O920        H951   0.990       .  S
O920        H965   0.990       .  S
O922        H948   0.966       .  S
O923      Zr1259   2.376   1_654  S
O923      Zr1260   2.385       .  S
O923       Zr933   2.379   1_655  S
O924      Zr1277   2.377   1_455  S
O924       H1293   0.965       .  S
C925       O1249   1.276       .  A
C925        C994   1.455       .  S
C926        C987   1.443       .  S
C927        C986   1.444       .  S
O928        H964   0.990       .  S
O929        C931   1.290       .  A
O930        C931   1.280       .  A
C931       C1025   1.440       .  S
O932       Zr933   2.439       .  S
O932        H961   0.990       .  S
Zr933       O936   2.437   1_455  S
Zr933       O937   2.440       .  S
Zr933       O938   2.418   1_455  S
Zr933      O1268   2.383       .  S
O934       C1283   1.277       .  A
O935      Zr1260   2.436       .  S
O935        H952   0.990       .  S
O935        H967   0.990       .  S
O936        H953   0.990       .  S
O937        H957   0.990       .  S
O937        H966   0.990       .  S
O938        C939   1.278   1_655  A
C939       O1278   1.284       .  A
C939        C989   1.467       .  S
O940        H959   0.990       .  S
O940        H963   0.990   1_455  S
O941        H955   0.990       .  S
O941        H962   0.990       .  S
O942        C946   1.282       .  A
O943        C946   1.288       .  A
O944        H954   0.990       .  S
O945        H958   0.990   1_465  S
C946       C1004   1.441       .  S
H949       O1268   0.966       .  S
C969        C970   1.415       .  A
C969        C974   1.402       .  A
C969       C1022   1.447       .  S
C970        C971   1.403       .  A
C970       C1007   1.453       .  S
C971        C972   1.404       .  A
C971        H976   1.086       .  S
C972        C973   1.415       .  A
C972        C988   1.449       .  S
C973        C974   1.401       .  A
C973       C1000   1.451       .  S
C974        H975   1.086       .  S
C977        C978   1.412       .  A
C977        C982   1.402       .  A
C977       C1006   1.448       .  S
C978        C979   1.403       .  A
C978       C1019   1.450       .  S
C979        C980   1.404       .  A
C979        H984   1.086       .  S
C980        C981   1.417       .  A
C980        C997   1.452       .  S
C981        C982   1.403       .  A
C981        C985   1.451       .  S
C982        H983   1.086       .  S
C985        C986   1.212       .  T
C987        C988   1.211       .  T
C989        C990   1.336       .  D
C989        H991   1.086   1_455  S
C990       H1336   1.089       .  S
H992       C1334   1.086       .  S
C993        C994   1.338       .  D
C993        H995   1.086   1_655  S
C994       H1340   1.089       .  S
H996       C1338   1.089       .  S
C997        C998   1.212       .  T
C999       C1000   1.212       .  T
C1001      C1002   1.209       .  T
C1003      C1004   1.210       .  T
C1005      C1006   1.210       .  T
C1007      C1008   1.212       .  T
C1009      C1010   1.208       .  T
C1011      C1012   1.338       .  D
C1011      H1013   1.086       .  S
C1012      H1014   1.089       .  S
C1015      C1016   1.338       .  D
C1015      H1017   1.089       .  S
C1016      H1018   1.086       .  S
C1019      C1020   1.210       .  T
C1021      C1022   1.210       .  T
C1023      C1024   1.212       .  T
C1025      C1026   1.209       .  T
C1027      C1028   1.211       .  T
C1029      C1030   1.209       .  T
C1031      C1032   1.213       .  T
C1033      C1034   1.415       .  A
C1033      C1038   1.401       .  A
C1033      C1374   1.445       .  S
C1034      C1035   1.402       .  A
C1034      C1375   1.451       .  S
C1035      C1036   1.402       .  A
C1035      H1040   1.086       .  S
C1036      C1037   1.412       .  A
C1036      C1372   1.445       .  S
C1037      C1038   1.399       .  A
C1037      C1370   1.448       .  S
C1038      H1039   1.086       .  S
Zr1041     O1042   2.438       .  S
Zr1041     O1043   2.393       .  S
Zr1041     O1044   2.409       .  S
Zr1041     O1047   2.424       .  S
Zr1041     O1049   2.376       .  S
Zr1041     O1050   2.379       .  S
Zr1041     O1051   2.397       .  S
Zr1041     O1052   2.390       .  S
O1042      H1098   0.990       .  S
O1042      H1106   0.990       .  S
O1043      C1063   1.276       .  A
O1044      C1065   1.279       .  A
O1045     Zr1055   2.453       .  S
O1045      C1064   1.288       .  A
O1046     Zr1054   2.456       .  S
O1046      C1065   1.289       .  A
O1047      C1064   1.282       .  A
O1048     Zr1056   2.444       .  S
O1048      C1063   1.284       .  A
O1049     Zr1054   2.386       .  S
O1049     Zr1056   2.369       .  S
O1050     Zr1055   2.391       .  S
O1050     Zr1056   2.373       .  S
O1050      H1085   0.966       .  S
O1051     Zr1054   2.403       .  S
O1051     Zr1071   2.393       .  S
O1051      H1088   0.966       .  S
O1052     Zr1055   2.399       .  S
O1052     Zr1071   2.398       .  S
Zr1053     O1078   2.440       .  S
Zr1053     O1072   2.401       .  S
Zr1053     O1080   2.420       .  S
Zr1053     O1068   2.417       .  S
Zr1053     O1059   2.396       .  S
Zr1053     O1060   2.397       .  S
Zr1053     O1061   2.375       .  S
Zr1053     O1062   2.377       .  S
Zr1054     O1073   2.437       .  S
Zr1054     O1066   2.435       .  S
Zr1054     O1067   2.464       .  S
Zr1054     O1060   2.400       .  S
Zr1054     O1061   2.384       .  S
Zr1055     O1057   2.434       .  S
Zr1055     O1079   2.434       .  S
Zr1055     O1081   2.461       .  S
Zr1055     O1059   2.394       .  S
Zr1055     O1062   2.384       .  S
Zr1056     O1082   2.435       .  S
Zr1056     O1083   2.436       .  S
Zr1056     O1058   2.436       .  S
Zr1056     O1059   2.403       .  S
Zr1056     O1060   2.403       .  S
O1057      H1094   0.990       .  S
O1058      H1089   0.990       .  S
O1058      H1103   0.990       .  S
O1060      H1086   0.966       .  S
O1061     Zr1071   2.379       .  S
O1062     Zr1071   2.381       .  S
O1062      H1087   0.966       .  S
C1063      C1359   1.458       .  S
C1064      C1364   1.441       .  S
C1065      C1365   1.435       .  S
O1066      H1102   0.990       .  S
O1067      C1069   1.290       .  A
O1068      C1069   1.280       .  A
C1069      C1367   1.445       .  S
O1070     Zr1071   2.439       .  S
O1070      H1099   0.990       .  S
Zr1071     O1074   2.437       .  S
Zr1071     O1075   2.440       .  S
Zr1071     O1076   2.422       .  S
O1072      C1077   1.282       .  A
O1073      H1090   0.990       .  S
O1073      H1105   0.990       .  S
O1074      H1091   0.990       .  S
O1075      H1095   0.990       .  S
O1075      H1104   0.990       .  S
O1076      C1077   1.279       .  A
C1077      C1355   1.469       .  S
O1078      H1097   0.990       .  S
O1078      H1101   0.990       .  S
O1079      H1093   0.990       .  S
O1079      H1100   0.990       .  S
O1080      C1084   1.281       .  A
O1081      C1084   1.290       .  A
O1082      H1092   0.990       .  S
O1083      H1096   0.990       .  S
C1084      C1376   1.444       .  S
Zr1107     O1108   2.436       .  S
Zr1107     O1109   2.388       .  S
Zr1107     O1110   2.411       .  S
Zr1107     O1113   2.428       .  S
Zr1107     O1115   2.375       .  S
Zr1107     O1116   2.379       .  S
Zr1107     O1117   2.398       .  S
Zr1107     O1118   2.391       .  S
O1108      H1164   0.990       .  S
O1108      H1172   0.990       .  S
O1109      C1129   1.276       .  A
O1110      C1131   1.279       .  A
O1111     Zr1121   2.458       .  S
O1111      C1130   1.289       .  A
O1112     Zr1120   2.461       .  S
O1112      C1131   1.290       .  A
O1113      C1130   1.283       .  A
O1114     Zr1122   2.433       .  S
O1114      C1129   1.282       .  A
O1115     Zr1120   2.380       .  S
O1115     Zr1122   2.370       .  S
O1116     Zr1121   2.389       .  S
O1116     Zr1122   2.373       .  S
O1116      H1151   0.966       .  S
O1117     Zr1120   2.402       .  S
O1117      H1154   0.966       .  S
O1118     Zr1121   2.394       .  S
Zr1119     O1144   2.442       .  S
Zr1119     O1138   2.421       .  S
Zr1119     O1146   2.429       .  S
Zr1119     O1134   2.426       .  S
Zr1119     O1125   2.402       .  S
Zr1119     O1126   2.405       .  S
Zr1119     O1127   2.377       .  S
Zr1119     O1128   2.376       .  S
Zr1120     O1132   2.435       .  S
Zr1121     O1145   2.436       .  S
Zr1122     O1148   2.436       .  S
Zr1122     O1149   2.435       .  S
Zr1122     O1124   2.436       .  S
O1123      H1160   0.990       .  S
O1124      H1155   0.990       .  S
O1124      H1169   0.990       .  S
O1126      H1152   0.966       .  S
O1127     Zr1137   2.379       .  S
O1128     Zr1137   2.384       .  S
O1128      H1153   0.966       .  S
C1129      C1356   1.452       .  S
C1130      C1353   1.444       .  S
C1131      C1373   1.439       .  S
O1132      H1168   0.990       .  S
O1133      C1135   1.289       .  A
O1134      C1135   1.282       .  A
C1135      C1349   1.445       .  S
O1136     Zr1137   2.439       .  S
O1136      H1165   0.990       .  S
Zr1137     O1140   2.438       .  S
Zr1137     O1141   2.439       .  S
Zr1137     O1142   2.425       .  S
O1138      C1143   1.285       .  A
O1139      H1156   0.990       .  S
O1139      H1171   0.990       .  S
O1140      H1157   0.990       .  S
O1141      H1161   0.990       .  S
O1141      H1170   0.990       .  S
O1142      C1143   1.279       .  A
C1143      C1360   1.472       .  S
O1144      H1163   0.990       .  S
O1144      H1167   0.990       .  S
O1145      H1159   0.990       .  S
O1145      H1166   0.990       .  S
O1146      C1150   1.282       .  A
O1147      C1150   1.290       .  A
O1148      H1158   0.990       .  S
O1149      H1162   0.990       .  S
C1150      C1352   1.449       .  S
C1173      C1174   1.415       .  A
C1173      C1178   1.404       .  A
C1173      C1354   1.450       .  S
C1174      C1175   1.401       .  A
C1174      C1368   1.451       .  S
C1175      C1176   1.402       .  A
C1175      H1180   1.086       .  S
C1176      C1177   1.416       .  A
C1176      C1345   1.449       .  S
C1177      C1178   1.404       .  A
C1177      C1347   1.453       .  S
C1178      H1179   1.086       .  S
Zr1181     O1182   2.436   1_455  S
Zr1181     O1183   2.383       .  S
Zr1181     O1184   2.412       .  S
Zr1181     O1187   2.421   1_455  S
Zr1181     O1189   2.376   1_556  S
Zr1181     O1191   2.393       .  S
Zr1181     O1192   2.388   1_455  S
O1182      H1238   0.990   1_655  S
O1182      H1246   0.990   1_655  S
O1184      C1205   1.280       .  A
O1185     Zr1195   2.452       .  S
O1185      C1204   1.288       .  A
O1186     Zr1194   2.464       .  S
O1186      C1205   1.290       .  A
O1187      C1204   1.282       .  A
O1188     Zr1196   2.436       .  S
O1188      C1203   1.281       .  A
O1189     Zr1194   2.383   1_554  S
O1190     Zr1196   2.376   1_655  S
O1190      H1225   0.966       .  S
O1191     Zr1194   2.403       .  S
O1191     Zr1211   2.390   1_455  S
O1191      H1228   0.966       .  S
O1192     Zr1195   2.401       .  S
O1192     Zr1211   2.396       .  S
Zr1193     O1218   2.442       .  S
Zr1193     O1212   2.410       .  S
Zr1193     O1220   2.425   1_455  S
Zr1193     O1208   2.422       .  S
Zr1193     O1199   2.398   1_455  S
Zr1193     O1200   2.399       .  S
Zr1194     O1213   2.436       .  S
Zr1194     O1201   2.387       .  S
Zr1195     O1197   2.435       .  S
Zr1195     O1202   2.383       .  S
Zr1196     O1222   2.437   1_455  S
Zr1196     O1223   2.435   1_455  S
Zr1196     O1198   2.435       .  S
Zr1196     O1199   2.403   1_455  S
Zr1196     O1200   2.400       .  S
O1197      H1234   0.990       .  S
O1198      H1229   0.990       .  S
O1198      H1243   0.990       .  S
O1200      H1226   0.966       .  S
O1201     Zr1211   2.382   1_455  S
O1202     Zr1211   2.382       .  S
O1202      H1227   0.966       .  S
C1203      C1334   1.473       .  S
C1204      C1371   1.438       .  S
C1205      C1346   1.442       .  S
O1206      H1242   0.990       .  S
O1207      C1209   1.290       .  A
O1208      C1209   1.281       .  A
C1209      C1343   1.446       .  S
O1210     Zr1211   2.438       .  S
O1210      H1239   0.990   1_655  S
Zr1211     O1214   2.436   1_655  S
Zr1211     O1215   2.439       .  S
Zr1211     O1216   2.416       .  S
O1213      H1230   0.990       .  S
O1213      H1245   0.990       .  S
O1214      H1231   0.990       .  S
O1215      H1235   0.990       .  S
O1215      H1244   0.990       .  S
O1216      C1217   1.277       .  A
C1217      C1337   1.465       .  S
O1218      H1237   0.990   1_455  S
O1218      H1241   0.990       .  S
O1219      H1233   0.990       .  S
O1219      H1240   0.990       .  S
O1220      C1224   1.282       .  A
O1221      C1224   1.291       .  A
O1222      H1232   0.990       .  S
O1223      H1236   0.990   1_655  S
C1224      C1342   1.449       .  S
Zr1247     O1248   2.438       .  S
Zr1247     O1249   2.389   1_455  S
Zr1247     O1250   2.414   1_455  S
Zr1247     O1253   2.424       .  S
Zr1247     O1257   2.395   1_455  S
Zr1247     O1258   2.391       .  S
O1248      H1304   0.990   1_455  S
O1248      H1312   0.990   1_455  S
O1250      C1271   1.280       .  A
O1251      C1270   1.288       .  A
O1252      C1271   1.289       .  A
O1253      C1270   1.282       .  A
O1254     Zr1262   2.423   1_655  S
O1254      C1269   1.281       .  A
O1255     Zr1262   2.374   1_655  S
O1256     Zr1262   2.373       .  S
O1256      H1291   0.966       .  S
O1257      H1294   0.966       .  S
Zr1259     O1284   2.442   1_455  S
Zr1259     O1278   2.412   1_556  S
Zr1259     O1286   2.422       .  S
Zr1259     O1274   2.417   1_455  S
Zr1259     O1265   2.399       .  S
Zr1259     O1266   2.400   1_455  S
Zr1259     O1268   2.376   1_556  S
Zr1260     O1273   2.457   1_554  S
Zr1260     O1266   2.399   1_554  S
Zr1261     O1287   2.464       .  S
Zr1261     O1265   2.395       .  S
Zr1261     O1268   2.385   1_556  S
Zr1262     O1288   2.437       .  S
Zr1262     O1289   2.436       .  S
Zr1262     O1264   2.436   1_455  S
O1263      H1300   0.990       .  S
O1264      H1295   0.990       .  S
O1264      H1309   0.990       .  S
O1266      H1292   0.966       .  S
O1267     Zr1277   2.368       .  S
C1269      C1338   1.448       .  S
C1270      C1331   1.439       .  S
C1271      C1330   1.441       .  S
O1272      H1308   0.990       .  S
O1273      C1275   1.289       .  A
O1274      C1275   1.280       .  A
C1275      C1369   1.441       .  S
O1276     Zr1277   2.439   1_455  S
O1276      H1305   0.990   1_455  S
Zr1277     O1280   2.437       .  S
Zr1277     O1281   2.440   1_655  S
Zr1277     O1282   2.448       .  S
O1279      H1296   0.990       .  S
O1279      H1311   0.990       .  S
O1280      H1297   0.990       .  S
O1281      H1301   0.990       .  S
O1281      H1310   0.989       .  S
O1282      C1283   1.285       .  A
C1283      C1333   1.460       .  S
O1284      H1303   0.990   1_655  S
O1284      H1307   0.990       .  S
O1285      H1299   0.990       .  S
O1285      H1306   0.990       .  S
O1286      C1290   1.281       .  A
O1287      C1290   1.290       .  A
O1288      H1298   0.990       .  S
O1289      H1302   0.990   1_465  S
C1290      C1348   1.446       .  S
C1313      C1314   1.414       .  A
C1313      C1318   1.402       .  A
C1313      C1366   1.442       .  S
C1314      C1315   1.403       .  A
C1314      C1351   1.456       .  S
C1315      C1316   1.405       .  A
C1315      H1320   1.085       .  S
C1316      C1317   1.414       .  A
C1316      C1332   1.446       .  S
C1317      C1318   1.399       .  A
C1317      C1344   1.453       .  S
C1318      H1319   1.086       .  S
C1321      C1322   1.413       .  A
C1321      C1326   1.402       .  A
C1321      C1350   1.453       .  S
C1322      C1323   1.404       .  A
C1322      C1363   1.448       .  S
C1323      C1324   1.403       .  A
C1323      H1328   1.085       .  S
C1324      C1325   1.416       .  A
C1324      C1341   1.456       .  S
C1325      C1326   1.404       .  A
C1325      C1329   1.447       .  S
C1326      H1327   1.086       .  S
C1329      C1330   1.209       .  T
C1331      C1332   1.208       .  T
C1333      C1334   1.339   1_655  D
C1333      H1335   1.089       .  S
C1337      C1338   1.337       .  D
C1337      H1339   1.086   1_655  S
C1341      C1342   1.214       .  T
C1343      C1344   1.213       .  T
C1345      C1346   1.210       .  T
C1347      C1348   1.213       .  T
C1349      C1350   1.212       .  T
C1351      C1352   1.214       .  T
C1353      C1354   1.211       .  T
C1355      C1356   1.338       .  D
C1355      H1357   1.086       .  S
C1356      H1358   1.089       .  S
C1359      C1360   1.337       .  D
C1359      H1361   1.089       .  S
C1360      H1362   1.086       .  S
C1363      C1364   1.209       .  T
C1365      C1366   1.206       .  T
C1367      C1368   1.212       .  T
C1369      C1370   1.209       .  T
C1371      C1372   1.208       .  T
C1373      C1374   1.209       .  T
C1375      C1376   1.211       .  T
