geometry optimzed in LAMMPS
_audit_creation_date              2020-11-30 
_audit_creation_method            'lammps2cif' 
_symmetry_space_group_name_H-M    'P1' 
_symmetry_Int_Tables_number       1 
_symmetry_cell_setting            triclinic 
loop_ 
_symmetry_equiv_pos_as_xyz 
  x,y,z 
_cell_length_a                    37.94668589 
_cell_length_b                    38.265993257266594 
_cell_length_c                    37.7405178419832 
_cell_angle_alpha                 89.51863843741059 
_cell_angle_beta                  90.30753217127366 
_cell_angle_gamma                 119.48843977082893 
loop_ 
_atom_site_label 
_atom_site_type_symbol 
_atom_site_fract_x 
_atom_site_fract_y 
_atom_site_fract_z 
_atom_site_charge 
O1          O  0.47326208  0.44587511  0.02567502    -0.71600
O2          O  0.54384468  0.50862896  0.45073599    -0.71900
O3          O  0.54789939  0.51150008  0.02185772    -0.71700
O4          O  0.46980917  0.44352697  0.45402399    -0.71700
O5          O  0.44198118  0.48098828  0.45441753    -0.71700
O6          O  0.52068158  0.54953681  0.02230719    -0.71700
O7          O  0.51629948  0.54668247  0.45060781    -0.71600
O8          O  0.44589009  0.48411379  0.02557454    -0.71800
V9          V  0.50805112  0.47808057  0.98813413     1.35200
V10         V  0.48185124  0.51466390  0.48824479     1.35200
C11         C  0.44733815  0.45413944  0.03820243     0.77600
C12         C  0.54206892  0.53836270  0.43788638     0.77700
C13         C  0.54815462  0.54248166  0.03364411     0.77500
C14         C  0.44234283  0.45031352  0.44247871     0.77500
O15         O  0.05205059  0.49126178  0.06371169    -0.71600
O16         O  0.05353074  0.55712121  0.48606687    -0.71900
O17         O  0.05609263  0.56321504  0.05728823    -0.71700
O18         O  0.04958202  0.48457488  0.49288378    -0.71700
O19         O  0.98403455  0.45618464  0.49339725    -0.71700
O20         O  0.99047124  0.53333455  0.05921179    -0.71700
O21         O  0.98793461  0.52824169  0.48785544    -0.71600
O22         O  0.98638133  0.46183355  0.06435011    -0.71800
V23         V  0.05159470  0.52353798  0.02489191     1.35200
V24         V  0.98852110  0.49552427  0.52608844     1.35200
C25         C  0.01879070  0.46539231  0.07731436     0.77600
C26         C  0.02093009  0.55420895  0.47399259     0.77700
C27         C  0.02429423  0.56096260  0.06998519     0.77500
C28         C  0.01568389  0.45665963  0.48248906     0.77500
O29         O  0.54378290  0.02682851  0.02819430    -0.71600
O30         O  0.47631002  0.02743208  0.45345988    -0.71900
O31         O  0.47048453  0.02269851  0.02431102    -0.71700
O32         O  0.54879344  0.03056701  0.45631600    -0.71700
O33         O  0.51793270  0.96603525  0.45315117    -0.71700
O34         O  0.44169366  0.95767386  0.02204535    -0.71700
O35         O  0.44637121  0.96285184  0.45043925    -0.71600
O36         O  0.51503359  0.96195820  0.02503427    -0.71800
V37         V  0.50937550  0.02568598  0.99061485     1.35200
V38         V  0.48084786  0.96334763  0.48791310     1.35200
C39         C  0.54122417  0.99440888  0.03938970     0.77600
C40         C  0.45031511  0.99563281  0.43848181     0.77700
C41         C  0.44239629  0.98861719  0.03431353     0.77500
C42         C  0.54587262  0.99934838  0.44198756     0.77500
C43         C  0.01601254  0.73698825  0.27058164    -0.02400
C44         C  0.98448162  0.27158226  0.28043593    -0.02400
C45         C  0.25797145  0.27225575  0.23798760    -0.02400
C46         C  0.27905933  0.01014466  0.23310653    -0.02400
C47         C  0.72566864  0.99165493  0.24038859    -0.02400
C48         C  0.73136432  0.71965595  0.23885987    -0.02400
C49         C  0.73139728  0.95277061  0.24079391     0.01500
C50         C  0.75216453  0.94523277  0.21227454     0.04300
C51         C  0.75461790  0.90936411  0.21074223    -0.11800
C52         C  0.73408220  0.87832407  0.23543008     0.23600
C53         C  0.71273948  0.88416187  0.26267229    -0.12300
C54         C  0.71532262  0.92183984  0.26796062     0.05000
C55         C  0.73665475  0.84029577  0.23405941     0.27400
C56         C  0.71333716  0.81015382  0.20989413    -0.13000
C57         C  0.71816304  0.77601762  0.20658100     0.05500
C58         C  0.73672936  0.76434892  0.23473488    -0.09000
C59         C  0.76327430  0.79760697  0.25748632     0.06300
C60         C  0.76391513  0.83514814  0.25580255    -0.13400
Br61       Br  0.67831221  0.83936932  0.29281794    -0.05400
Br62       Br  0.78070867  0.98352508  0.17538585     0.00200
Br63       Br  0.71014857  0.75744813  0.15785160     0.00700
Br64       Br  0.80105075  0.88001684  0.28465238    -0.03800
Br65       Br  0.70435043  0.92865868  0.31668318     0.00800
Br66       Br  0.78570158  0.90165995  0.17412402    -0.03100
Br67       Br  0.67575260  0.81677875  0.17958850    -0.03900
Br68       Br  0.79636616  0.79408214  0.29495380     0.00100
C69         C  0.25252006  0.22739816  0.24013663     0.01500
C70         C  0.26615114  0.21159739  0.26944204     0.04300
C71         C  0.26331574  0.17317748  0.26741233    -0.11800
C72         C  0.25095091  0.15067729  0.23623405     0.23600
C73         C  0.23319136  0.16254689  0.20953291    -0.12300
C74         C  0.22960265  0.19758758  0.21343058     0.05000
C75         C  0.25828641  0.11562531  0.23156672     0.27400
C76         C  0.29812088  0.12192132  0.23174621    -0.13000
C77         C  0.30551083  0.08899368  0.23194053     0.05500
C78         C  0.27250163  0.04812878  0.23027475    -0.09000
C79         C  0.23437991  0.04456901  0.22023288     0.06300
C80         C  0.22631566  0.07639407  0.22607098    -0.13400
Br81       Br  0.22053383  0.13494609  0.16431984    -0.05400
Br82       Br  0.28196061  0.23449229  0.31668893     0.00200
Br83       Br  0.36202860  0.10317768  0.22992462     0.00700
Br84       Br  0.17077491  0.06485971  0.22953697    -0.03800
Br85       Br  0.19572185  0.20293428  0.17823012     0.00800
Br86       Br  0.27482897  0.14902792  0.30813829    -0.03100
Br87       Br  0.34298264  0.17649845  0.23092243    -0.03900
Br88       Br  0.19324872  0.99903059  0.19519087     0.00100
C89         C  0.21218853  0.26573932  0.23581515     0.01500
C90         C  0.18160490  0.24104495  0.26168461     0.04300
C91         C  0.14534133  0.24288878  0.26567897    -0.11800
C92         C  0.13479159  0.26423117  0.24145684     0.23600
C93         C  0.15920459  0.28102057  0.21149757    -0.12300
C94         C  0.19673635  0.28124313  0.20775588     0.05000
C95         C  0.09740467  0.26793736  0.24775020     0.27400
C96         C  0.05927136  0.23346767  0.24851318    -0.13000
C97         C  0.02658507  0.23351627  0.26606786     0.05500
C98         C  0.02615188  0.27050825  0.27290647    -0.09000
C99         C  0.06625717  0.30572391  0.27258930     0.06300
C100        C  0.10068504  0.30409495  0.25972929    -0.13400
Br101      Br  0.13903369  0.30236225  0.17472916    -0.05400
Br102      Br  0.18680105  0.20609745  0.29571669     0.00200
Br103      Br  0.99188347  0.18280964  0.28986143     0.00700
Br104      Br  0.15381503  0.35169326  0.25963592    -0.03800
Br105      Br  0.21891986  0.29627652  0.16007878     0.00800
Br106      Br  0.11240685  0.22077776  0.30804848    -0.03100
Br107      Br  0.05246447  0.18473728  0.22719765    -0.03900
Br108      Br  0.08090109  0.35397116  0.29911136     0.00100
C109        C  0.94700687  0.22734398  0.27485119     0.01500
C110        C  0.94018733  0.20825330  0.24050485     0.04300
C111        C  0.90521878  0.17067841  0.23377661    -0.11800
C112        C  0.87689676  0.14992647  0.26060081     0.23600
C113        C  0.88477072  0.16545222  0.29501914    -0.12300
C114        C  0.91981047  0.20244680  0.30280581     0.05000
C115        C  0.83968159  0.11020078  0.25349103     0.27400
C116        C  0.80162157  0.10769133  0.25091222    -0.13000
C117        C  0.76591633  0.07023003  0.24671106     0.05500
C118        C  0.76718092  0.03297833  0.24491664    -0.09000
C119        C  0.80659801  0.03649957  0.25151807     0.06300
C120        C  0.84200074  0.07471792  0.25379400    -0.13400
Br121      Br  0.84728919  0.13370779  0.33232683    -0.05400
Br122      Br  0.97667465  0.23266575  0.20043714     0.00200
Br123      Br  0.71588731  0.07269800  0.24294438     0.00700
Br124      Br  0.89467965  0.07920342  0.26161712    -0.03800
Br125      Br  0.93080825  0.21024054  0.35328612     0.00800
Br126      Br  0.89445681  0.14777164  0.18684668    -0.03100
Br127      Br  0.79877221  0.15670770  0.25390123    -0.03900
Br128      Br  0.81515398  0.99326067  0.26907773     0.00100
C129        C  0.05281917  0.78296636  0.27366124     0.01500
C130        C  0.08137218  0.79822844  0.30311826     0.04300
C131        C  0.11879399  0.83456272  0.29993265    -0.11800
C132        C  0.12722123  0.85960407  0.27022883     0.23600
C133        C  0.09633099  0.85026961  0.24535188    -0.12300
C134        C  0.05897326  0.81365625  0.24764836     0.05000
C135        C  0.16739807  0.89760743  0.26659687     0.27400
C136        C  0.17078075  0.93488514  0.27426161    -0.13000
C137        C  0.20796155  0.97090335  0.26937035     0.05500
C138        C  0.24148344  0.97107299  0.25111335    -0.09000
C139        C  0.23990275  0.93255268  0.25204760     0.06300
C140        C  0.20272239  0.89648758  0.25767936    -0.13400
Br141      Br  0.10764023  0.88626873  0.20522747    -0.05400
Br142      Br  0.06990811  0.77801651  0.35165054     0.00200
Br143      Br  0.21149226  0.01530297  0.29595836     0.00700
Br144      Br  0.19907908  0.84491746  0.24977816    -0.03800
Br145      Br  0.02008827  0.80864468  0.21215214     0.00800
Br146      Br  0.15903907  0.85194958  0.33736530    -0.03100
Br147      Br  0.12371146  0.93605068  0.29256867    -0.03900
Br148      Br  0.28636767  0.92549977  0.24457586     0.00100
C149        C  0.97500365  0.73955288  0.26371138     0.01500
C150        C  0.94809180  0.72156573  0.23342993     0.04300
C151        C  0.90880787  0.71694348  0.23260888    -0.11800
C152        C  0.89807168  0.73845233  0.25562413     0.23600
C153        C  0.92663147  0.76364181  0.28063056    -0.12300
C154        C  0.96415850  0.76403275  0.28527159     0.05000
C155        C  0.85706740  0.73543159  0.25242992     0.27400
C156        C  0.84986924  0.75895531  0.22788451    -0.13000
C157        C  0.81011784  0.75292919  0.22235638     0.05500
C158        C  0.77635769  0.72572223  0.24450244    -0.09000
C159        C  0.78803581  0.70884267  0.27414027     0.06300
C160        C  0.82538504  0.70913723  0.27432802    -0.13400
Br161      Br  0.91274533  0.79665708  0.30950306    -0.05400
Br162      Br  0.96425294  0.71469343  0.18635514     0.00200
Br163      Br  0.80473234  0.78137869  0.18205738     0.00700
Br164      Br  0.83436246  0.67485134  0.30676429    -0.03800
Br165      Br  0.99708428  0.79687895  0.32374133     0.00800
Br166      Br  0.86954224  0.68249378  0.19784321    -0.03100
Br167      Br  0.89546838  0.79942087  0.20144396    -0.03900
Br168      Br  0.76454251  0.69732345  0.32140670     0.00100
C169        C  0.70453345  0.99193498  0.20261125     0.01500
C170        C  0.66734981  0.95772825  0.19187322     0.04300
C171        C  0.63863523  0.96196235  0.17130606    -0.11800
C172        C  0.65055877  0.99627651  0.15045386     0.23600
C173        C  0.69116766  0.02688829  0.15212601    -0.12300
C174        C  0.71859702  0.02491032  0.17704960     0.05000
C175        C  0.62264635  0.99638975  0.12207498     0.27400
C176        C  0.61947657  0.97720056  0.08948003    -0.13000
C177        C  0.59239071  0.97586275  0.06297863     0.05500
C178        C  0.56884774  0.99476182  0.06816163    -0.09000
C179        C  0.57304382  0.01511094  0.10048748     0.06300
C180        C  0.59910613  0.01509946  0.12752206    -0.13400
Br181      Br  0.70877050  0.07119349  0.11888540    -0.05400
Br182      Br  0.66308607  0.90572080  0.18539912     0.00200
Br183      Br  0.58966410  0.95005596  0.01865343     0.00700
Br184      Br  0.60239696  0.04015498  0.17246799    -0.03800
Br185      Br  0.77486127  0.06491712  0.16833803     0.00800
Br186      Br  0.58368942  0.91811655  0.16837632    -0.03100
Br187      Br  0.65314526  0.95332153  0.08093560    -0.03900
Br188      Br  0.54273856  0.04263466  0.10834710     0.00100
C189        C  0.69733406  0.99036700  0.27287855     0.01500
C190        C  0.65392851  0.96924267  0.27075963     0.04300
C191        C  0.63043290  0.98001988  0.29209537    -0.11800
C192        C  0.64655892  0.00158806  0.32339695     0.23600
C193        C  0.68778540  0.01685078  0.33055130    -0.12300
C194        C  0.71326917  0.01229546  0.30588815     0.05000
C195        C  0.61920100  0.00094450  0.35225827     0.27400
C196        C  0.61771862  0.03583673  0.36118695    -0.13000
C197        C  0.59524935  0.03615807  0.39093474     0.05500
C198        C  0.57300079  0.00087606  0.41203395    -0.09000
C199        C  0.57510872  0.96584323  0.40272687     0.06300
C200        C  0.59804710  0.96615480  0.37328542    -0.13400
Br201      Br  0.70854209  0.04235205  0.37603183    -0.05400
Br202      Br  0.62429383  0.91297976  0.25953562     0.00200
Br203      Br  0.59600373  0.08583339  0.40151324     0.00700
Br204      Br  0.60179002  0.91872839  0.36230145    -0.03800
Br205      Br  0.76691873  0.02874336  0.32447841     0.00800
Br206      Br  0.57387789  0.95965742  0.28118429    -0.03100
Br207      Br  0.64748426  0.08354205  0.33245043    -0.03900
Br208      Br  0.54857683  0.91660814  0.43027496     0.00100
C209        C  0.31503801  0.01916135  0.26087013     0.01500
C210        C  0.31050359  0.02683277  0.29734131     0.04300
C211        C  0.32676020  0.01431145  0.32502254    -0.11800
C212        C  0.35681184  0.00431739  0.31806635     0.23600
C213        C  0.36885831  0.00497290  0.28293630    -0.12300
C214        C  0.34949147  0.01366630  0.25463652     0.05000
C215        C  0.38103904  0.00121563  0.34805747     0.27400
C216        C  0.41745370  0.03526300  0.35808458    -0.13000
C217        C  0.44027759  0.03337734  0.38692319     0.05500
C218        C  0.42607622  0.99738122  0.40733604    -0.09000
C219        C  0.38883131  0.96331678  0.39714739     0.06300
C220        C  0.36712460  0.96521931  0.36727809    -0.13400
Br221      Br  0.41189990  0.99270530  0.27412381    -0.05400
Br222      Br  0.30590401  0.07277582  0.31116902     0.00200
Br223      Br  0.49171272  0.08092078  0.39629515     0.00700
Br224      Br  0.31781583  0.91854131  0.35220042    -0.03800
Br225      Br  0.37775396  0.02446205  0.21074455     0.00800
Br226      Br  0.31118160  0.01561270  0.37350449    -0.03100
Br227      Br  0.43591574  0.08503751  0.33196572    -0.03900
Br228      Br  0.36513671  0.91403557  0.42438585     0.00100
C229        C  0.41054391  0.98480202  0.05924174     0.01500
C230        C  0.38177647  0.99588838  0.04835170     0.04300
C231        C  0.35167700  0.99257687  0.07210579    -0.11800
C232        C  0.35193378  0.98105742  0.10776113     0.23600
C233        C  0.37884031  0.96708382  0.11780477    -0.12300
C234        C  0.40761748  0.96845295  0.09343431     0.05000
C235        C  0.32686420  0.98739574  0.13489732     0.27400
C236        C  0.33487033  0.02655728  0.14263116    -0.13000
C237        C  0.31169764  0.03293262  0.16819859     0.05500
C238        C  0.28649262  0.00141195  0.19247774    -0.09000
C239        C  0.27003092  0.96252341  0.17644992     0.06300
C240        C  0.29227858  0.95519098  0.15022642    -0.13400
Br241      Br  0.37657073  0.94576056  0.16472493    -0.05400
Br242      Br  0.38330647  0.01519824  0.00066471     0.00200
Br243      Br  0.29721915  0.07215017  0.15173731     0.00700
Br244      Br  0.27335525  0.90136876  0.13314294    -0.03800
Br245      Br  0.44394819  0.94900313  0.10726303     0.00800
Br246      Br  0.30935050  0.00289835  0.05567982    -0.03100
Br247      Br  0.37988274  0.07272958  0.12082986    -0.03900
Br248      Br  0.21264148  0.92540160  0.17511331     0.00100
C249        C  0.02092553  0.71178143  0.23880902     0.01500
C250        C  0.99223235  0.66894332  0.23650501     0.04300
C251        C  0.99543554  0.64454900  0.21031648    -0.11800
C252        C  0.02307616  0.66166904  0.18273368     0.23600
C253        C  0.05040875  0.70276105  0.18266397    -0.12300
C254        C  0.05204756  0.72721065  0.21134015     0.05000
C255        C  0.02380158  0.63620097  0.15354602     0.27400
C256        C  0.05111966  0.62130755  0.15492879    -0.13000
C257        C  0.05205331  0.59734403  0.12726657     0.05500
C258        C  0.02615701  0.58893715  0.09763478    -0.09000
C259        C  0.99971760  0.60496878  0.09587509     0.06300
C260        C  0.99788970  0.62768287  0.12411980    -0.13400
Br261      Br  0.08617178  0.72481769  0.14193518    -0.05400
Br262      Br  0.94346111  0.64104049  0.26452362     0.00200
Br263      Br  0.08719113  0.57430304  0.13152138     0.00700
Br264      Br  0.95909910  0.64628491  0.12268488    -0.03800
Br265      Br  0.10152588  0.77811681  0.21014615     0.00800
Br266      Br  0.96042156  0.58671382  0.21061530    -0.03100
Br267      Br  0.08654752  0.63313708  0.19535325    -0.03900
Br268      Br  0.96724020  0.59770499  0.05402539     0.00100
C269        C  0.01551194  0.71069972  0.30496453     0.01500
C270        C  0.04828436  0.70150318  0.30947327     0.04300
C271        C  0.04821371  0.67557007  0.33658736    -0.11800
C272        C  0.01733023  0.65894300  0.36171459     0.23600
C273        C  0.98566889  0.66770284  0.35953011    -0.12300
C274        C  0.98365566  0.69211639  0.33163005     0.05000
C275        C  0.01825499  0.63193434  0.39061671     0.27400
C276        C  0.99923763  0.58997989  0.38567822    -0.13000
C277        C  0.00051144  0.56465965  0.41263849     0.05500
C278        C  0.02112358  0.58100352  0.44481808    -0.09000
C279        C  0.04044518  0.62300874  0.44961617     0.06300
C280        C  0.03873873  0.64823675  0.42281806    -0.14600
Br281      Br  0.94389183  0.64390483  0.39559884    -0.05400
Br282      Br  0.09751056  0.72615003  0.28195996     0.00200
Br283      Br  0.97528619  0.50756361  0.40491296     0.00700
Br284      Br  0.06384460  0.70529165  0.43037536    -0.03800
Br285      Br  0.93316375  0.69275118  0.33202781     0.00800
Br286      Br  0.09145517  0.66249441  0.34041779    -0.03100
Br287      Br  0.97137445  0.56734850  0.34175037    -0.03900
Br288      Br  0.06793576  0.64597124  0.49363343     0.00100
C289        C  0.98484266  0.28818658  0.31921158     0.01500
C290        C  0.95610137  0.30059341  0.32899102     0.04300
C291        C  0.96347891  0.32673224  0.35762836    -0.11800
C292        C  0.99614791  0.33661512  0.38045146     0.23600
C293        C  0.01919179  0.31742680  0.37652007    -0.12300
C294        C  0.01304935  0.29235402  0.34699977     0.05000
C295        C  0.00480126  0.36616152  0.40925662     0.27400
C296        C  0.03544964  0.40638695  0.40468951    -0.13000
C297        C  0.03905311  0.43600211  0.42856576     0.05500
C298        C  0.01301384  0.42529042  0.45813209    -0.09000
C299        C  0.98405271  0.38447475  0.46401384     0.06300
C300        C  0.97974050  0.35511955  0.43943824    -0.13400
Br301      Br  0.05918082  0.32584260  0.41239165    -0.05400
Br302      Br  0.90416402  0.28062204  0.30714534     0.00200
Br303      Br  0.07746448  0.49165824  0.41856548     0.00700
Br304      Br  0.93866540  0.29976152  0.44643049    -0.03800
Br305      Br  0.03925230  0.26000296  0.35048477     0.00800
Br306      Br  0.93042476  0.35198079  0.36414377    -0.03100
Br307      Br  0.07212539  0.42132430  0.36519263    -0.03900
Br308      Br  0.95066587  0.36813415  0.50605746     0.00100
C309        C  0.01713605  0.43986920  0.10792107     0.01500
C310        C  0.03427382  0.41446100  0.10579829     0.04300
C311        C  0.02830273  0.38700628  0.13351228    -0.11800
C312        C  0.00513840  0.38470377  0.16340496     0.23600
C313        C  0.98978342  0.41150468  0.16632815    -0.12300
C314        C  0.99605907  0.43915724  0.13888263     0.05000
C315        C  0.99731281  0.35481470  0.19229517     0.27400
C316        C  0.95923232  0.32009110  0.19564319    -0.13000
C317        C  0.95041172  0.29375858  0.22532529     0.05500
C318        C  0.98122801  0.30240259  0.25236167    -0.09000
C319        C  0.01203317  0.34341883  0.25199212     0.06300
C320        C  0.02497340  0.36478652  0.22009196    -0.13400
Br321      Br  0.95979751  0.41013628  0.20802793    -0.05400
Br322      Br  0.06461986  0.41603236  0.06444193     0.00200
Br323      Br  0.89412011  0.25149992  0.22703709     0.00700
Br324      Br  0.07593896  0.41425610  0.21890377    -0.03800
Br325      Br  0.97755684  0.47762979  0.14462638     0.00800
Br326      Br  0.05128692  0.35200477  0.13064822    -0.03100
Br327      Br  0.91932109  0.30957578  0.15896675    -0.03900
Br328      Br  0.00994303  0.37872884  0.28700704     0.00100
C329        C  0.70696162  0.69309718  0.20486226     0.01500
C330        C  0.66390770  0.67964562  0.20147685     0.04300
C331        C  0.63992027  0.65356691  0.17407009    -0.11800
C332        C  0.65776179  0.64468396  0.14576276     0.23600
C333        C  0.69963448  0.65921044  0.14652886    -0.12300
C334        C  0.72329708  0.67933150  0.17678665     0.05000
C335        C  0.63211046  0.61925376  0.11546184     0.27400
C336        C  0.62248785  0.57878478  0.11266986    -0.13000
C337        C  0.59758804  0.55446051  0.08478387     0.05500
C338        C  0.57939435  0.56953139  0.06040265    -0.09000
C339        C  0.59117668  0.61096280  0.06223229     0.06300
C340        C  0.61731683  0.63544995  0.08943841    -0.13400
Br341      Br  0.72431323  0.65080161  0.10496572    -0.05400
Br342      Br  0.63535434  0.69903860  0.23069245     0.00200
Br343      Br  0.59055140  0.50109527  0.08044942     0.00700
Br344      Br  0.63348226  0.69176572  0.09095761    -0.03800
Br345      Br  0.77415448  0.67915853  0.17786111     0.00800
Br346      Br  0.58151238  0.62990391  0.17452895    -0.03100
Br347      Br  0.64297249  0.55639118  0.14795151    -0.03900
Br348      Br  0.57500436  0.63603829  0.02579747     0.00100
C349        C  0.70282221  0.69304178  0.27130061     0.01500
C350        C  0.68655965  0.70695019  0.29932529     0.04300
C351        C  0.66261073  0.68104661  0.32716268    -0.11800
C352        C  0.65046676  0.64021767  0.32687687     0.23600
C353        C  0.66303686  0.62479648  0.29942141    -0.12300
C354        C  0.69025208  0.65046332  0.27327716     0.05000
C355        C  0.62283943  0.61302242  0.35503671     0.27400
C356        C  0.63855990  0.60566797  0.38643603    -0.13000
C357        C  0.61219582  0.58089525  0.41334527     0.05500
C358        C  0.56985048  0.56318451  0.40899082    -0.09000
C359        C  0.55429865  0.56986310  0.37712228     0.06300
C360        C  0.58064662  0.59506127  0.35050361    -0.13400
Br361      Br  0.64248004  0.56730680  0.29853609    -0.05400
Br362      Br  0.69066789  0.75868984  0.30252905     0.00200
Br363      Br  0.63431894  0.57262741  0.45677897     0.00700
Br364      Br  0.55917775  0.60554426  0.30768982    -0.03800
Br365      Br  0.71242101  0.62471820  0.24416470     0.00800
Br366      Br  0.64423967  0.70045794  0.36659445    -0.03100
Br367      Br  0.69629663  0.63030693  0.39286210    -0.03900
Br368      Br  0.49696853  0.54250455  0.36856289     0.00100
C369        C  0.28374308  0.29894050  0.27166610     0.01500
C370        C  0.32677348  0.31190385  0.27409303     0.04300
C371        C  0.35196654  0.33819412  0.30086866    -0.11800
C372        C  0.33536811  0.34784195  0.32955300     0.23600
C373        C  0.29366563  0.33357304  0.33015106    -0.12300
C374        C  0.26888932  0.31357718  0.30046006     0.05000
C375        C  0.36187347  0.37370160  0.35908228     0.27400
C376        C  0.37725622  0.35786225  0.38482732    -0.13000
C377        C  0.40287389  0.38243641  0.41217236     0.05500
C378        C  0.41218043  0.42318300  0.41518890    -0.09000
C379        C  0.39336833  0.43766365  0.39092978     0.06300
C380        C  0.37034302  0.41377483  0.36213599    -0.13400
Br381      Br  0.27101521  0.34276530  0.37285503    -0.05400
Br382      Br  0.35358942  0.29030064  0.24581939     0.00200
Br383      Br  0.42234162  0.35812106  0.44657034     0.00700
Br384      Br  0.35086474  0.43618592  0.32595038    -0.03800
Br385      Br  0.21960286  0.31666815  0.30172477     0.00800
Br386      Br  0.41021490  0.36019527  0.29961931    -0.03100
Br387      Br  0.36250521  0.30187026  0.38277801    -0.03900
Br388      Br  0.39641916  0.48916629  0.39684654     0.00100
C389        C  0.28565016  0.29908558  0.20480702     0.01500
C390        C  0.30459240  0.28660887  0.17758775     0.04300
C391        C  0.32925536  0.31343873  0.15042281    -0.11800
C392        C  0.33826956  0.35342050  0.14961402     0.23600
C393        C  0.32271281  0.36742349  0.17584272    -0.12300
C394        C  0.29656647  0.34126018  0.20244752     0.05000
C395        C  0.36586458  0.38118870  0.12152310     0.27400
C396        C  0.40783055  0.40411986  0.12797757    -0.13000
C397        C  0.43416297  0.42883884  0.10107225     0.05500
C398        C  0.41921681  0.42929104  0.06688737    -0.09000
C399        C  0.37730312  0.40580453  0.06019763     0.06300
C400        C  0.35064437  0.38247955  0.08760340    -0.13400
Br401      Br  0.33773603  0.42377069  0.17433516    -0.05400
Br402      Br  0.30691131  0.23731883  0.17573335     0.00200
Br403      Br  0.49053460  0.46334698  0.11153190     0.00700
Br404      Br  0.29329475  0.35126336  0.07859902    -0.03800
Br405      Br  0.27386064  0.36590127  0.23220210     0.00800
Br406      Br  0.35471000  0.29727626  0.11410010    -0.03100
Br407      Br  0.42936210  0.40028692  0.17337599    -0.03900
Br408      Br  0.35674108  0.40368518  0.01292279     0.00100
O409        O  0.47331939  0.44583262  0.52567500    -0.71600
O410        O  0.54377793  0.50866116  0.95073555    -0.71900
O411        O  0.54796653  0.51145127  0.52186392    -0.71700
O412        O  0.46974993  0.44355527  0.95402340    -0.71700
O413        O  0.44191390  0.48100908  0.95440473    -0.71700
O414        O  0.52076098  0.54949951  0.52231858    -0.71700
O415        O  0.51622740  0.54671050  0.95059795    -0.71600
O416        O  0.44596221  0.48408387  0.52558466    -0.71800
V417        V  0.50811508  0.47804341  0.48813607     1.35200
V418        V  0.48177758  0.51469265  0.98823365     1.35200
C419        C  0.44739670  0.45409898  0.53820404     0.77600
C420        C  0.54200256  0.53839376  0.93788509     0.77700
C421        C  0.54822724  0.54243373  0.53365511     0.77500
C422        C  0.44228394  0.45033721  0.94246885     0.77500
O423        O  0.05203501  0.49124871  0.56369147    -0.71600
O424        O  0.05355828  0.55713315  0.98608535    -0.71900
O425        O  0.05607408  0.56319857  0.55727123    -0.71700
O426        O  0.04960501  0.48458452  0.99290859    -0.71700
O427        O  0.98405912  0.45621200  0.99340192    -0.71700
O428        O  0.99045223  0.53332757  0.55918611    -0.71700
O429        O  0.98796299  0.52827020  0.98788001    -0.71600
O430        O  0.98636700  0.46183102  0.56434788    -0.71800
V431        V  0.05157319  0.52352438  0.52487160     1.35200
V432        V  0.98854272  0.49554096  0.02610311     1.35200
C433        C  0.01877858  0.46539037  0.57730861     0.77600
C434        C  0.02096014  0.55422936  0.97401489     0.77700
C435        C  0.02427597  0.56094901  0.56996481     0.77500
C436        C  0.01570714  0.45667509  0.98250653     0.77500
O437        O  0.54374082  0.02675132  0.52817463    -0.71600
O438        O  0.47636672  0.02748460  0.95345235    -0.71900
O439        O  0.47046161  0.02265793  0.52431862    -0.71700
O440        O  0.54886873  0.03065607  0.95633844    -0.71700
O441        O  0.51803468  0.96612608  0.95316986    -0.71700
O442        O  0.44163932  0.95763066  0.52205599    -0.71700
O443        O  0.44645659  0.96290403  0.95043087    -0.71600
O444        O  0.51496145  0.96187863  0.52502179    -0.71800
V445        V  0.50932582  0.02562057  0.49060780     1.35200
V446        V  0.48092530  0.96341464  0.98791618     1.35200
C447        C  0.54116550  0.99432604  0.53937355     0.77600
C448        C  0.45038886  0.99567962  0.93847050     0.77700
C449        C  0.44236667  0.98858409  0.53432724     0.77500
C450        C  0.54597389  0.99944488  0.94201648     0.77500
C451        C  0.01601508  0.73695419  0.77058482    -0.02400
C452        C  0.98446343  0.27158012  0.78045450    -0.02400
C453        C  0.25794154  0.27224501  0.73797155    -0.02400
C454        C  0.27906197  0.01015350  0.73312453    -0.02400
C455        C  0.72565848  0.99163109  0.74037545    -0.02400
C456        C  0.73137784  0.71963682  0.73889361    -0.02400
C457        C  0.73139172  0.95274818  0.74079183     0.01500
C458        C  0.75216149  0.94520970  0.71227389     0.04300
C459        C  0.75462307  0.90934500  0.71074601    -0.11800
C460        C  0.73408009  0.87830005  0.73542731     0.23600
C461        C  0.71272571  0.88413230  0.76266360    -0.12300
C462        C  0.71530032  0.92180838  0.76795207     0.05000
C463        C  0.73666119  0.84027453  0.73405805     0.27400
C464        C  0.71334992  0.81012711  0.70989353    -0.13000
C465        C  0.71817731  0.77598937  0.70659184     0.05500
C466        C  0.73674674  0.76433151  0.73475068    -0.09000
C467        C  0.76330030  0.79760278  0.75748765     0.06300
C468        C  0.76393354  0.83514042  0.75579580    -0.13400
Br469      Br  0.67828669  0.83933017  0.79279547    -0.05400
Br470      Br  0.78070177  0.98349873  0.67538165     0.00200
Br471      Br  0.71015790  0.75739533  0.65787016     0.00700
Br472      Br  0.80108173  0.88002735  0.78462188    -0.03800
Br473      Br  0.70426360  0.92859798  0.81666354     0.00800
Br474      Br  0.78573432  0.90165446  0.67414567    -0.03100
Br475      Br  0.67577945  0.81675042  0.67956790    -0.03900
Br476      Br  0.79641322  0.79410451  0.79495022     0.00100
C477        C  0.25250195  0.22739475  0.74013197     0.01500
C478        C  0.26613703  0.21160591  0.76944342     0.04300
C479        C  0.26329595  0.17318312  0.76742725    -0.11800
C480        C  0.25094767  0.15068269  0.73624879     0.23600
C481        C  0.23319746  0.16254795  0.70953611    -0.12300
C482        C  0.22959110  0.19757788  0.71342909     0.05000
C483        C  0.25828939  0.11563473  0.73159448     0.27400
C484        C  0.29812370  0.12193116  0.73181170    -0.13000
C485        C  0.30551381  0.08900385  0.73201465     0.05500
C486        C  0.27250674  0.04813945  0.73030827    -0.09000
C487        C  0.23439567  0.04458757  0.72023603     0.06300
C488        C  0.22632482  0.07640776  0.72607242    -0.13400
Br489      Br  0.22058942  0.13496925  0.66431306    -0.05400
Br490      Br  0.28195160  0.23451810  0.81668297     0.00200
Br491      Br  0.36203629  0.10319579  0.73005049     0.00700
Br492      Br  0.17077930  0.06487201  0.72949435    -0.03800
Br493      Br  0.19568257  0.20289103  0.67823658     0.00800
Br494      Br  0.27477980  0.14903073  0.80816936    -0.03100
Br495      Br  0.34298612  0.17650987  0.73101661    -0.03900
Br496      Br  0.19328272  0.99906653  0.69516376     0.00100
C497        C  0.21215220  0.26571309  0.73580454     0.01500
C498        C  0.18157615  0.24101934  0.76168122     0.04300
C499        C  0.14530884  0.24285541  0.76568067    -0.11800
C500        C  0.13474796  0.26418873  0.74145815     0.23600
C501        C  0.15915018  0.28096981  0.71149129    -0.12300
C502        C  0.19668660  0.28120213  0.70774506     0.05000
C503        C  0.09736490  0.26789975  0.74776128     0.27400
C504        C  0.05922938  0.23343262  0.74854034    -0.13000
C505        C  0.02655007  0.23349449  0.76609621     0.05500
C506        C  0.02612739  0.27049319  0.77292787    -0.09000
C507        C  0.06623552  0.30570189  0.77260361     0.06300
C508        C  0.10065448  0.30406401  0.75973307    -0.13400
Br509      Br  0.13895651  0.30228391  0.67471901    -0.05400
Br510      Br  0.18677789  0.20607046  0.79570832     0.00200
Br511      Br  0.99184008  0.18279656  0.78989942     0.00700
Br512      Br  0.15378446  0.35166125  0.75961410    -0.03800
Br513      Br  0.21886081  0.29622697  0.66006485     0.00800
Br514      Br  0.11238341  0.22074361  0.80805535    -0.03100
Br515      Br  0.05240645  0.18468949  0.72723930    -0.03900
Br516      Br  0.08089647  0.35394453  0.79913706     0.00100
C517        C  0.94698517  0.22734604  0.77485187     0.01500
C518        C  0.94017985  0.20826838  0.74050016     0.04300
C519        C  0.90521440  0.17069503  0.73375568    -0.11800
C520        C  0.87687955  0.14993017  0.76056868     0.23600
C521        C  0.88473531  0.16544884  0.79499066    -0.12300
C522        C  0.91977378  0.20243983  0.80279352     0.05000
C523        C  0.83966949  0.11020032  0.75344496     0.27400
C524        C  0.80160403  0.10767995  0.75087070    -0.13000
C525        C  0.76590153  0.07021288  0.74667840     0.05500
C526        C  0.76717201  0.03296385  0.74488513    -0.09000
C527        C  0.80659795  0.03649781  0.75147025     0.06300
C528        C  0.84199740  0.07472164  0.75373320    -0.13400
Br529      Br  0.84722885  0.13370223  0.83228211    -0.05400
Br530      Br  0.97668437  0.23270022  0.70044609     0.00200
Br531      Br  0.71586694  0.07267049  0.74292018     0.00700
Br532      Br  0.89468828  0.07921871  0.76150689    -0.03800
Br533      Br  0.93075791  0.21021273  0.85327663     0.00800
Br534      Br  0.89447383  0.14781112  0.68681716    -0.03100
Br535      Br  0.79874476  0.15669206  0.75384578    -0.03900
Br536      Br  0.81517805  0.99327134  0.76902571     0.00100
C537        C  0.05282584  0.78293019  0.77364454     0.01500
C538        C  0.08138618  0.79820591  0.80309587     0.04300
C539        C  0.11880358  0.83454208  0.79989891    -0.11800
C540        C  0.12722434  0.85956717  0.77018431     0.23600
C541        C  0.09633403  0.85021275  0.74530306    -0.12300
C542        C  0.05897445  0.81360454  0.74761780     0.05000
C543        C  0.16739152  0.89757993  0.76655029     0.27400
C544        C  0.17075224  0.93484956  0.77420701    -0.13000
C545        C  0.20793026  0.97087675  0.76934012     0.05500
C546        C  0.24147714  0.97106774  0.75110824    -0.09000
C547        C  0.23990435  0.93254924  0.75203028     0.06300
C548        C  0.20272692  0.89647560  0.75764723    -0.13400
Br549      Br  0.10764812  0.88616889  0.70514511    -0.05400
Br550      Br  0.06993715  0.77801401  0.85163549     0.00200
Br551      Br  0.21140842  0.01525412  0.79592718     0.00700
Br552      Br  0.19909906  0.84491166  0.74974324    -0.03800
Br553      Br  0.02007759  0.80857330  0.71212571     0.00800
Br554      Br  0.15905322  0.85195283  0.83732940    -0.03100
Br555      Br  0.12365260  0.93599052  0.79247041    -0.03900
Br556      Br  0.28637411  0.92550616  0.74454930     0.00100
C557        C  0.97500635  0.73952140  0.76372768     0.01500
C558        C  0.94806973  0.72150716  0.73346700     0.04300
C559        C  0.90878576  0.71688282  0.73266572    -0.11800
C560        C  0.89807580  0.73842541  0.75566498     0.23600
C561        C  0.92665936  0.76364335  0.78064217    -0.12300
C562        C  0.96418274  0.76402596  0.78527730     0.05000
C563        C  0.85707637  0.73541435  0.75247823     0.27400
C564        C  0.84987430  0.75891752  0.72791344    -0.13000
C565        C  0.81012410  0.75289195  0.72238540     0.05500
C566        C  0.77636882  0.72570371  0.74454446    -0.09000
C567        C  0.78805041  0.70884736  0.77419851     0.06300
C568        C  0.82540292  0.70914759  0.77439819    -0.13400
Br569      Br  0.91281346  0.79671382  0.80947963    -0.05400
Br570      Br  0.96419188  0.71460448  0.68638642     0.00200
Br571      Br  0.80473029  0.78130779  0.68206438     0.00700
Br572      Br  0.83439970  0.67490983  0.80687846    -0.03800
Br573      Br  0.99713045  0.79689628  0.82372630     0.00800
Br574      Br  0.86948690  0.68238625  0.69794398    -0.03100
Br575      Br  0.89546689  0.79935359  0.70144535    -0.03900
Br576      Br  0.76454625  0.69734352  0.82146133     0.00100
C577        C  0.70450114  0.99188156  0.70259996     0.01500
C578        C  0.66732457  0.95765680  0.69186466     0.04300
C579        C  0.63860264  0.96186241  0.67127820    -0.11800
C580        C  0.65050308  0.99617947  0.65043513     0.23600
C581        C  0.69110315  0.02681001  0.65211200    -0.12300
C582        C  0.71854418  0.02484960  0.67703319     0.05000
C583        C  0.62257967  0.99628487  0.62206064     0.27400
C584        C  0.61939991  0.97709010  0.58946637    -0.13000
C585        C  0.59230927  0.97575103  0.56296853     0.05500
C586        C  0.56878428  0.99466969  0.56814703    -0.09000
C587        C  0.57299562  0.01503085  0.60046927     0.06300
C588        C  0.59904789  0.01500430  0.62750710    -0.13400
Br589      Br  0.70868290  0.07111312  0.61887202    -0.05400
Br590      Br  0.66303605  0.90562309  0.68549799     0.00200
Br591      Br  0.58955091  0.94991500  0.51865261     0.00700
Br592      Br  0.60233280  0.04004971  0.67245758    -0.03800
Br593      Br  0.77480157  0.06486170  0.66830216     0.00800
Br594      Br  0.58367171  0.91798748  0.66832538    -0.03100
Br595      Br  0.65306641  0.95321102  0.58091468    -0.03900
Br596      Br  0.54273403  0.04260201  0.60831680     0.00100
C597        C  0.69734482  0.99036637  0.77287368     0.01500
C598        C  0.65394037  0.96930832  0.77075158     0.04300
C599        C  0.63048775  0.98013499  0.79209307    -0.11800
C600        C  0.64663486  0.00166851  0.82340736     0.23600
C601        C  0.68785247  0.01686635  0.83056019    -0.12300
C602        C  0.71330680  0.01227968  0.80588558     0.05000
C603        C  0.61929618  0.00104100  0.85228073     0.27400
C604        C  0.61787420  0.03595511  0.86124942    -0.13000
C605        C  0.59542076  0.03628149  0.89100852     0.05500
C606        C  0.57312405  0.00098253  0.91207661    -0.09000
C607        C  0.57519924  0.96593790  0.90274643     0.06300
C608        C  0.59811097  0.96624001  0.87328802    -0.13400
Br609      Br  0.70863564  0.04232136  0.87605235    -0.05400
Br610      Br  0.62423379  0.91304051  0.75956223     0.00200
Br611      Br  0.59629224  0.08599628  0.90166303     0.00700
Br612      Br  0.60176927  0.91877950  0.86225092    -0.03800
Br613      Br  0.76695096  0.02867128  0.82445433     0.00800
Br614      Br  0.57394909  0.95986754  0.78117802    -0.03100
Br615      Br  0.64770085  0.08368222  0.83255251    -0.03900
Br616      Br  0.54867905  0.91670418  0.93029826     0.00100
C617        C  0.31503248  0.01914883  0.76089419     0.01500
C618        C  0.31049910  0.02680350  0.79737299     0.04300
C619        C  0.32679044  0.01430489  0.82504544    -0.11800
C620        C  0.35684135  0.00431456  0.81807215     0.23600
C621        C  0.36885886  0.00495420  0.78293605    -0.12300
C622        C  0.34948909  0.01366149  0.75464872     0.05000
C623        C  0.38109121  0.00122145  0.84804923     0.27400
C624        C  0.41752995  0.03526306  0.85804295    -0.13000
C625        C  0.44036851  0.03338437  0.88687302     0.05500
C626        C  0.42615071  0.99741018  0.90731878    -0.09000
C627        C  0.38889016  0.96335028  0.89715915     0.06300
C628        C  0.36717638  0.96523709  0.86728929    -0.13400
Br629      Br  0.41186204  0.99263827  0.77409663    -0.05400
Br630      Br  0.30578817  0.07267620  0.81123090     0.00200
Br631      Br  0.49185239  0.08089322  0.89618414     0.00700
Br632      Br  0.31786396  0.91855094  0.85223252    -0.03800
Br633      Br  0.37777408  0.02451604  0.71076417     0.00800
Br634      Br  0.31123679  0.01559934  0.87353875    -0.03100
Br635      Br  0.43600940  0.08501805  0.83188971    -0.03900
Br636      Br  0.36518457  0.91410011  0.92444194     0.00100
C637        C  0.41053003  0.98479039  0.55925978     0.01500
C638        C  0.38175987  0.99586975  0.54836318     0.04300
C639        C  0.35167004  0.99257530  0.57211852    -0.11800
C640        C  0.35194305  0.98108394  0.60777926     0.23600
C641        C  0.37885081  0.96711566  0.61783154    -0.12300
C642        C  0.40761877  0.96846730  0.59346118     0.05000
C643        C  0.32687718  0.98743075  0.63490948     0.27400
C644        C  0.33489022  0.02659374  0.64264346    -0.13000
C645        C  0.31172833  0.03297395  0.66822092     0.05500
C646        C  0.28650641  0.00144425  0.69249042    -0.09000
C647        C  0.27003770  0.96256111  0.67644915     0.06300
C648        C  0.29228523  0.95522886  0.65022780    -0.13400
Br649      Br  0.37658480  0.94581207  0.66475966    -0.05400
Br650      Br  0.38327439  0.01514810  0.50066655     0.00200
Br651      Br  0.29733407  0.07227076  0.65181241     0.00700
Br652      Br  0.27335040  0.90141322  0.63312088    -0.03800
Br653      Br  0.44395289  0.94902547  0.60730002     0.00800
Br654      Br  0.30932888  0.00287047  0.55568633    -0.03100
Br655      Br  0.37989459  0.07275583  0.62081862    -0.03900
Br656      Br  0.21264804  0.92544531  0.67509692     0.00100
C657        C  0.02090843  0.71173051  0.73881596     0.01500
C658        C  0.99221463  0.66889025  0.73653152     0.04300
C659        C  0.99540041  0.64448440  0.71034387    -0.11800
C660        C  0.02302123  0.66159361  0.68274591     0.23600
C661        C  0.05035377  0.70268524  0.68265905    -0.12300
C662        C  0.05201361  0.72714684  0.71133216     0.05000
C663        C  0.02373648  0.63611767  0.65356171     0.27400
C664        C  0.05104082  0.62120788  0.65495101    -0.13000
C665        C  0.05200058  0.59727763  0.62727133     0.05500
C666        C  0.02613714  0.58891301  0.59762167    -0.09000
C667        C  0.99971369  0.60496175  0.59585588     0.06300
C668        C  0.99785953  0.62764321  0.62411567    -0.13400
Br669      Br  0.08609328  0.72472252  0.64191287    -0.05400
Br670      Br  0.94346535  0.64099741  0.76458015     0.00200
Br671      Br  0.08713931  0.57423667  0.63151688     0.00700
Br672      Br  0.95908318  0.64626194  0.62267137    -0.03800
Br673      Br  0.10150252  0.77804424  0.71011558     0.00800
Br674      Br  0.96039219  0.58664879  0.71066687    -0.03100
Br675      Br  0.08641499  0.63297157  0.69540601    -0.03900
Br676      Br  0.96730781  0.59777660  0.55397270     0.00100
C677        C  0.01552937  0.71068337  0.80497345     0.01500
C678        C  0.04830200  0.70148669  0.80947631     0.04300
C679        C  0.04824490  0.67557124  0.83660033    -0.11800
C680        C  0.01737100  0.65895693  0.86173657     0.23600
C681        C  0.98571061  0.66771804  0.85955773    -0.12300
C682        C  0.98368757  0.69212006  0.83165301     0.05000
C683        C  0.01829881  0.63195197  0.89063804     0.27400
C684        C  0.99928578  0.58999849  0.88569712    -0.13000
C685        C  0.00055683  0.56467888  0.91265805     0.05500
C686        C  0.02115832  0.58102311  0.94484102    -0.09000
C687        C  0.04047221  0.62302663  0.94964356     0.06300
C688        C  0.03877353  0.64825495  0.92284259    -0.14600
Br689      Br  0.94394879  0.64393756  0.89564117    -0.05400
Br690      Br  0.09750960  0.72610849  0.78193791     0.00200
Br691      Br  0.97533878  0.50758342  0.90493137     0.00700
Br692      Br  0.06387710  0.70530950  0.93040039    -0.03800
Br693      Br  0.93320346  0.69276914  0.83206653     0.00800
Br694      Br  0.09149275  0.66250481  0.84043304    -0.03100
Br695      Br  0.97142923  0.56736745  0.84176655    -0.03900
Br696      Br  0.06793552  0.64598342  0.99367227     0.00100
C697        C  0.98482121  0.28817484  0.81923623     0.01500
C698        C  0.95608358  0.30058605  0.82901764     0.04300
C699        C  0.96345990  0.32671907  0.85766035    -0.11800
C700        C  0.99612151  0.33658943  0.88048962     0.23600
C701        C  0.01916016  0.31739568  0.87655540    -0.12300
C702        C  0.01302301  0.29233329  0.84702715     0.05000
C703        C  0.00478420  0.36614077  0.90929471     0.27400
C704        C  0.03547010  0.40635346  0.90474050    -0.13000
C705        C  0.03909498  0.43598017  0.92861382     0.05500
C706        C  0.01303192  0.42529288  0.95816156    -0.09000
C707        C  0.98403653  0.38448638  0.96403597     0.06300
C708        C  0.97970655  0.35512045  0.93946479    -0.13400
Br709      Br  0.05913655  0.32579177  0.91243492    -0.05400
Br710      Br  0.90415114  0.28062804  0.80716668     0.00200
Br711      Br  0.07757831  0.49162093  0.91863543     0.00700
Br712      Br  0.93858270  0.29977942  0.94644849    -0.03800
Br713      Br  0.03923138  0.25998715  0.85050511     0.00800
Br714      Br  0.93041770  0.35198131  0.86417135    -0.03100
Br715      Br  0.07216708  0.42126019  0.86526201    -0.03900
Br716      Br  0.95062893  0.36817089  0.00606776     0.00100
C717        C  0.01713138  0.43988116  0.60792793     0.01500
C718        C  0.03427140  0.41447385  0.60581696     0.04300
C719        C  0.02829870  0.38702453  0.63353749    -0.11800
C720        C  0.00514634  0.38473829  0.66343443     0.23600
C721        C  0.98980110  0.41154797  0.66635121    -0.12300
C722        C  0.99606430  0.43918430  0.63889238     0.05000
C723        C  0.99731257  0.35484804  0.69232907     0.27400
C724        C  0.95922878  0.32012808  0.69567634    -0.13000
C725        C  0.95040754  0.29378354  0.72535028     0.05500
C726        C  0.98122281  0.30241433  0.75238528    -0.09000
C727        C  0.01203381  0.34342952  0.75202184     0.06300
C728        C  0.02497297  0.36480838  0.72012532    -0.13400
Br729      Br  0.95984418  0.41021183  0.70806085    -0.05400
Br730      Br  0.06462987  0.41604428  0.56447007     0.00200
Br731      Br  0.89411595  0.25152326  0.72705365     0.00700
Br732      Br  0.07594380  0.41427183  0.71894121    -0.03800
Br733      Br  0.97755828  0.47765546  0.64462229     0.00800
Br734      Br  0.05125805  0.35200207  0.63067289    -0.03100
Br735      Br  0.91931223  0.30963482  0.65901043    -0.03900
Br736      Br  0.00996363  0.37873212  0.78705660     0.00100
C737        C  0.70697644  0.69305920  0.70490227     0.01500
C738        C  0.66392393  0.67961093  0.70150810     0.04300
C739        C  0.63993747  0.65352150  0.67410552    -0.11800
C740        C  0.65777725  0.64460557  0.64581736     0.23600
C741        C  0.69964592  0.65911085  0.64659918    -0.12300
C742        C  0.72330899  0.67926279  0.67684788     0.05000
C743        C  0.63213167  0.61917489  0.61551288     0.27400
C744        C  0.62249314  0.57869990  0.61272787    -0.13000
C745        C  0.59762066  0.55438710  0.58482356     0.05500
C746        C  0.57946142  0.56947264  0.56042147    -0.09000
C747        C  0.59126541  0.61090860  0.56224152     0.06300
C748        C  0.61737999  0.63538545  0.58946500    -0.13400
Br749      Br  0.72431682  0.65061670  0.60507272    -0.05400
Br750      Br  0.63537297  0.69902003  0.73070974     0.00200
Br751      Br  0.59058872  0.50102498  0.58048140     0.00700
Br752      Br  0.63356839  0.69170646  0.59097226    -0.03800
Br753      Br  0.77416359  0.67908474  0.67794675     0.00800
Br754      Br  0.58153248  0.62988502  0.67454433    -0.03100
Br755      Br  0.64291962  0.55628284  0.64803985    -0.03900
Br756      Br  0.57517226  0.63600240  0.52576128     0.00100
C757        C  0.70283373  0.69303783  0.77133886     0.01500
C758        C  0.68657562  0.70696072  0.79935559     0.04300
C759        C  0.66261473  0.68106655  0.82719247    -0.11800
C760        C  0.65045573  0.64023470  0.82691198     0.23600
C761        C  0.66302217  0.62480038  0.79946568    -0.12300
C762        C  0.69025459  0.65045791  0.77332831     0.05000
C763        C  0.62281464  0.61304900  0.85506618     0.27400
C764        C  0.63851871  0.60570160  0.88647884    -0.13000
C765        C  0.61213959  0.58093682  0.91338206     0.05500
C766        C  0.56979720  0.56321950  0.90900263    -0.09000
C767        C  0.55426203  0.56988545  0.87711948     0.06300
C768        C  0.58062482  0.59508241  0.85050952    -0.13400
Br769      Br  0.64242977  0.56730432  0.79858034    -0.05400
Br770      Br  0.69072151  0.75871444  0.80255850     0.00200
Br771      Br  0.63423629  0.57268564  0.95684004     0.00700
Br772      Br  0.55918119  0.60554781  0.80767144    -0.03800
Br773      Br  0.71243268  0.62469611  0.74425051     0.00800
Br774      Br  0.64424480  0.70049371  0.86661402    -0.03100
Br775      Br  0.69625182  0.63032770  0.89292641    -0.03900
Br776      Br  0.49693770  0.54250648  0.86852809     0.00100
C777        C  0.28371146  0.29894595  0.77164426     0.01500
C778        C  0.32674462  0.31192373  0.77407519     0.04300
C779        C  0.35192880  0.33821608  0.80085452    -0.11800
C780        C  0.33531949  0.34785342  0.82953780     0.23600
C781        C  0.29361496  0.33357230  0.83012973    -0.12300
C782        C  0.26884866  0.31357933  0.80043318     0.05000
C783        C  0.36181613  0.37371458  0.85907129     0.27400
C784        C  0.37720833  0.35788165  0.88481328    -0.13000
C785        C  0.40283653  0.38246181  0.91215057     0.05500
C786        C  0.41213067  0.42320488  0.91517271    -0.09000
C787        C  0.39331199  0.43768043  0.89091441     0.06300
C788        C  0.37027989  0.41378601  0.86212505    -0.13400
Br789      Br  0.27094554  0.34273772  0.87283380    -0.05400
Br790      Br  0.35357848  0.29034077  0.74580232     0.00200
Br791      Br  0.42235223  0.35816061  0.94651843     0.00700
Br792      Br  0.35078238  0.43618627  0.82594586    -0.03800
Br793      Br  0.21956663  0.31667764  0.80168012     0.00800
Br794      Br  0.41017943  0.36023078  0.79961440    -0.03100
Br795      Br  0.36245031  0.30188748  0.88277312    -0.03900
Br796      Br  0.39637939  0.48919265  0.89681604     0.00100
C797        C  0.28561200  0.29905988  0.70477999     0.01500
C798        C  0.30454173  0.28656866  0.67756028     0.04300
C799        C  0.32917456  0.31337751  0.65037036    -0.11800
C800        C  0.33822859  0.35337163  0.64957028     0.23600
C801        C  0.32269968  0.36739222  0.67580914    -0.12300
C802        C  0.29653466  0.34123459  0.70240807     0.05000
C803        C  0.36585294  0.38113685  0.62149016     0.27400
C804        C  0.40782521  0.40399333  0.62794458    -0.13000
C805        C  0.43418272  0.42871503  0.60105302     0.05500
C806        C  0.41925419  0.42923832  0.56687610    -0.09000
C807        C  0.37733274  0.40582057  0.56018435     0.06300
C808        C  0.35065128  0.38250092  0.58758069    -0.13400
Br809      Br  0.33779312  0.42375708  0.67432907    -0.05400
Br810      Br  0.30691793  0.23730596  0.67575114     0.00200
Br811      Br  0.49056433  0.46314017  0.61152737     0.00700
Br812      Br  0.29329267  0.35139783  0.57857846    -0.03800
Br813      Br  0.27381867  0.36588319  0.73214093     0.00800
Br814      Br  0.35453753  0.29716657  0.61400237    -0.03100
Br815      Br  0.42932732  0.40005821  0.67332570    -0.03900
Br816      Br  0.35678600  0.40378348  0.51291655     0.00100
loop_ 
_geom_bond_atom_site_label_1 
_geom_bond_atom_site_label_2 
_geom_bond_distance 
_geom_bond_site_symmetry_2 
_ccdc_geom_bond_type 
O1            V9   1.913   1_554  S
O1           C11   1.267       .  A
O2          V417   1.906       .  S
O2           C12   1.265       .  A
O3            V9   1.909   1_554  S
O3           C13   1.265       .  A
O4          V417   1.906       .  S
O4           C14   1.266       .  A
O5           V10   1.915       .  S
O5           C14   1.267       .  A
O6          V418   1.919   1_554  S
O6           C13   1.270       .  A
O7           V10   1.908       .  S
O7           C12   1.266       .  A
O8          V418   1.906   1_554  S
O8           C11   1.264       .  A
V9          O410   1.905       .  S
V9          O412   1.906       .  S
V9          V418   2.081       .  T
V10         O414   1.919       .  S
V10         O416   1.906       .  S
V10         V417   2.081       .  T
C11         C398   1.487       .  S
C12         C358   1.487       .  S
C13         C338   1.514       .  S
C14         C378   1.511       .  S
O15          V23   1.914       .  S
O15          C25   1.267       .  A
O16         V431   1.918       .  S
O16          C26   1.269       .  A
O17          V23   1.898       .  S
O17          C27   1.263       .  A
O18         V431   1.898       .  S
O18          C28   1.264       .  A
O19          V24   1.896       .  S
O19          C28   1.263   1_655  A
O20         V432   1.893       .  S
O20          C27   1.263   1_655  A
O21          V24   1.910       .  S
O21          C26   1.266   1_655  A
O22         V432   1.903       .  S
O22          C25   1.265   1_655  A
V23         O424   1.918   1_554  S
V23         O426   1.898   1_554  S
V23         V432   2.086   1_455  T
V24         O428   1.893       .  S
V24         O430   1.903       .  S
V24         V431   2.086   1_655  T
C25         C309   1.488       .  S
C26         C278   1.496       .  S
C27         C258   1.478       .  S
C28         C298   1.481       .  S
O29          V37   1.909   1_554  S
O29          C39   1.265   1_545  A
O30         V445   1.899       .  S
O30          C40   1.264   1_545  A
O31          V37   1.913   1_554  S
O31          C41   1.268   1_545  A
O32         V445   1.921       .  S
O32          C42   1.270   1_545  A
O33          V38   1.894       .  S
O33          C42   1.262       .  A
O34         V446   1.902   1_554  S
O34          C41   1.263       .  A
O35          V38   1.915       .  S
O35          C40   1.267       .  A
O36         V446   1.921   1_554  S
O36          C39   1.270       .  A
V37         O438   1.899       .  S
V37         O440   1.921       .  S
V37         V446   2.079   1_545  T
V38         O442   1.902       .  S
V38         O444   1.921       .  S
V38         V445   2.079   1_565  T
C39         C178   1.501       .  S
C40         C218   1.510       .  S
C41         C229   1.484       .  S
C42         C198   1.514   1_565  S
C43         C129   1.625       .  S
C43         C149   1.626   1_455  S
C43         C249   1.613       .  S
C43         C269   1.630       .  S
C44          C98   1.628   1_655  S
C44         C109   1.602       .  S
C44         C289   1.598       .  S
C44         C318   1.628       .  S
C45          C69   1.626       .  S
C45          C89   1.631       .  S
C45         C369   1.625       .  S
C45         C389   1.630       .  S
C46          C78   1.593       .  S
C46         C138   1.620   1_545  S
C46         C209   1.615       .  S
C46         C238   1.627       .  S
C47          C49   1.606       .  S
C47         C118   1.600   1_565  S
C47         C169   1.635       .  S
C47         C189   1.620       .  S
C48          C58   1.626       .  S
C48         C158   1.619       .  S
C48         C329   1.618       .  S
C48         C349   1.618       .  S
C49          C50   1.449       .  A
C49          C54   1.449       .  A
C50          C51   1.422       .  A
C50         Br62   1.918       .  S
C51          C52   1.401       .  A
C51         Br66   1.938       .  S
C52          C55   1.507       .  S
C52          C53   1.398       .  A
C53          C54   1.412       .  A
C53         Br61   1.928       .  S
C54         Br65   1.935       .  S
C55          C56   1.396       .  A
C55          C60   1.404       .  A
C56          C57   1.412       .  A
C56         Br67   1.934       .  S
C57          C58   1.455       .  A
C57         Br63   1.945       .  S
C58          C59   1.456       .  A
C59          C60   1.426       .  A
C59         Br68   1.934       .  S
C60         Br64   1.937       .  S
C69          C70   1.465       .  A
C69          C74   1.451       .  A
C70          C71   1.423       .  A
C70         Br82   1.950       .  S
C71          C72   1.400       .  A
C71         Br86   1.943       .  S
C72          C75   1.510       .  S
C72          C73   1.401       .  A
C73          C74   1.422       .  A
C73         Br81   1.944       .  S
C74         Br85   1.922       .  S
C75          C76   1.409       .  A
C75          C80   1.406       .  A
C76          C77   1.419       .  A
C76         Br87   1.939       .  S
C77          C78   1.446       .  A
C77         Br83   1.938       .  S
C78          C79   1.434       .  A
C79          C80   1.413       .  A
C79         Br88   1.924   1_545  S
C80         Br84   1.934       .  S
C89          C90   1.453       .  A
C89          C94   1.464       .  A
C90          C91   1.421       .  A
C90        Br102   1.925       .  S
C91          C92   1.403       .  A
C91        Br106   1.947       .  S
C92          C95   1.514       .  S
C92          C93   1.401       .  A
C93          C94   1.428       .  A
C93        Br101   1.940       .  S
C94        Br105   1.949       .  S
C95          C96   1.398       .  A
C95         C100   1.405       .  A
C96          C97   1.410       .  A
C96        Br107   1.934       .  S
C97          C98   1.449       .  A
C97        Br103   1.942   1_455  S
C98          C99   1.454       .  A
C99         C100   1.426       .  A
C99        Br108   1.932       .  S
C100       Br104   1.941       .  S
C109        C110   1.452       .  A
C109        C114   1.453       .  A
C110        C111   1.420       .  A
C110       Br122   1.950       .  S
C111        C112   1.403       .  A
C111       Br126   1.933       .  S
C112        C115   1.505       .  S
C112        C113   1.401       .  A
C113        C114   1.417       .  A
C113       Br121   1.942       .  S
C114       Br125   1.942       .  S
C115        C116   1.402       .  A
C115        C120   1.403       .  A
C116        C117   1.416       .  A
C116       Br127   1.935       .  S
C117        C118   1.452       .  A
C117       Br123   1.951       .  S
C118        C119   1.455       .  A
C119        C120   1.420       .  A
C119       Br128   1.947   1_545  S
C120       Br124   1.941       .  S
C129        C130   1.458       .  A
C129        C134   1.453       .  A
C130        C131   1.421       .  A
C130       Br142   1.948       .  S
C131        C132   1.400       .  A
C131       Br146   1.940       .  S
C132        C135   1.508       .  S
C132        C133   1.402       .  A
C133        C134   1.423       .  A
C133       Br141   1.940       .  S
C134       Br145   1.927       .  S
C135        C136   1.400       .  A
C135        C140   1.405       .  A
C136        C137   1.417       .  A
C136       Br147   1.940       .  S
C137        C138   1.447       .  A
C137       Br143   1.927   1_565  S
C138        C139   1.446       .  A
C139        C140   1.422       .  A
C139       Br148   1.933       .  S
C140       Br144   1.935       .  S
C149        C150   1.460       .  A
C149        C154   1.451       .  A
C150        C151   1.412       .  A
C150       Br162   1.944       .  S
C151        C152   1.394       .  A
C151       Br166   1.937       .  S
C152        C155   1.507       .  S
C152        C153   1.404       .  A
C153        C154   1.427       .  A
C153       Br161   1.935       .  S
C154       Br165   1.927       .  S
C155        C156   1.403       .  A
C155        C160   1.395       .  A
C156        C157   1.424       .  A
C156       Br167   1.935       .  S
C157        C158   1.452       .  A
C157       Br163   1.931       .  S
C158        C159   1.459       .  A
C159        C160   1.412       .  A
C159       Br168   1.946       .  S
C160       Br164   1.935       .  S
C169        C170   1.433       .  A
C169        C174   1.459   1_565  A
C170        C171   1.407       .  A
C170       Br182   1.933       .  S
C171        C172   1.396       .  A
C171       Br186   1.932       .  S
C172        C175   1.504       .  S
C172        C173   1.405   1_565  A
C173        C174   1.428       .  A
C173       Br181   1.937       .  S
C174       Br185   1.947       .  S
C175        C176   1.412       .  A
C175        C180   1.410   1_565  A
C176        C177   1.413       .  A
C176       Br187   1.931       .  S
C177        C178   1.414       .  A
C177       Br183   1.926       .  S
C178        C179   1.418   1_565  A
C179        C180   1.417       .  A
C179       Br188   1.929       .  S
C180       Br184   1.929       .  S
C189        C190   1.436       .  A
C189        C194   1.460   1_565  A
C190        C191   1.410       .  A
C190       Br202   1.925       .  S
C191        C192   1.401   1_565  A
C191       Br206   1.932       .  S
C192        C195   1.500       .  S
C192        C193   1.400       .  A
C193        C194   1.418       .  A
C193       Br201   1.943       .  S
C194       Br205   1.940       .  S
C195        C196   1.408       .  A
C195        C200   1.408   1_545  A
C196        C197   1.417       .  A
C196       Br207   1.932       .  S
C197        C198   1.427       .  A
C197       Br203   1.932       .  S
C198        C199   1.429   1_545  A
C199        C200   1.412       .  A
C199       Br208   1.938       .  S
C200       Br204   1.937       .  S
C209        C210   1.439       .  A
C209        C214   1.443       .  A
C210        C211   1.406       .  A
C210       Br222   1.927       .  S
C211        C212   1.396       .  A
C211       Br226   1.934       .  S
C212        C215   1.495       .  S
C212        C213   1.401       .  A
C213        C214   1.420       .  A
C213       Br221   1.940   1_545  S
C214       Br225   1.907       .  S
C215        C216   1.407       .  A
C215        C220   1.405   1_545  A
C216        C217   1.411       .  A
C216       Br227   1.937       .  S
C217        C218   1.427   1_545  A
C217       Br223   1.937       .  S
C218        C219   1.426       .  A
C219        C220   1.415       .  A
C219       Br228   1.931       .  S
C220       Br224   1.931       .  S
C229        C230   1.410       .  A
C229        C234   1.410       .  A
C230        C231   1.411       .  A
C230       Br242   1.930   1_565  S
C231        C232   1.414       .  A
C231       Br246   1.931   1_565  S
C232        C235   1.501       .  S
C232        C233   1.415       .  A
C233        C234   1.412       .  A
C233       Br241   1.928       .  S
C234       Br245   1.929       .  S
C235        C236   1.408   1_565  A
C235        C240   1.407       .  A
C236        C237   1.410       .  A
C236       Br247   1.933       .  S
C237        C238   1.437       .  A
C237       Br243   1.932       .  S
C238        C239   1.438   1_545  A
C239        C240   1.420       .  A
C239       Br248   1.928       .  S
C240       Br244   1.932       .  S
C249        C250   1.458   1_455  A
C249        C254   1.461       .  A
C250        C251   1.411       .  A
C250       Br262   1.934       .  S
C251        C252   1.392   1_655  A
C251       Br266   1.941       .  S
C252        C255   1.486       .  S
C252        C253   1.394       .  A
C253        C254   1.418       .  A
C253       Br261   1.947       .  S
C254       Br265   1.929       .  S
C255        C256   1.408       .  A
C255        C260   1.409   1_455  A
C256        C257   1.407       .  A
C256       Br267   1.931       .  S
C257        C258   1.415       .  A
C257       Br263   1.932       .  S
C258        C259   1.411   1_455  A
C259        C260   1.404       .  A
C259       Br268   1.934       .  S
C260       Br264   1.925       .  S
C269        C270   1.458       .  A
C269        C274   1.461   1_455  A
C270        C271   1.419       .  A
C270       Br282   1.931       .  S
C271        C272   1.395       .  A
C271       Br286   1.941       .  S
C272        C275   1.508       .  S
C272        C273   1.399   1_455  A
C273        C274   1.428       .  A
C273       Br281   1.943       .  S
C274       Br285   1.928       .  S
C275        C276   1.413   1_455  A
C275        C280   1.413       .  A
C276        C277   1.416   1_655  A
C276       Br287   1.929       .  S
C277        C278   1.414       .  A
C277       Br283   1.930   1_455  S
C278        C279   1.413       .  A
C279        C280   1.415       .  A
C279       Br288   1.930       .  S
C280       Br284   1.928       .  S
C289        C290   1.438       .  A
C289        C294   1.447   1_655  A
C290        C291   1.409       .  A
C290       Br302   1.913       .  S
C291        C292   1.398       .  A
C291       Br306   1.941       .  S
C292        C295   1.490   1_655  S
C292        C293   1.400   1_655  A
C293        C294   1.418       .  A
C293       Br301   1.935       .  S
C294       Br305   1.935       .  S
C295        C296   1.410       .  A
C295        C300   1.410   1_455  A
C296        C297   1.406       .  A
C296       Br307   1.926       .  S
C297        C298   1.412       .  A
C297       Br303   1.934       .  S
C298        C299   1.415   1_455  A
C299        C300   1.408       .  A
C299       Br308   1.934       .  S
C300       Br304   1.932       .  S
C309        C310   1.414       .  A
C309        C314   1.412   1_455  A
C310        C311   1.414       .  A
C310       Br322   1.928       .  S
C311        C312   1.409       .  A
C311       Br326   1.929       .  S
C312        C315   1.494   1_455  S
C312        C313   1.412   1_455  A
C313        C314   1.409       .  A
C313       Br321   1.932       .  S
C314       Br325   1.932       .  S
C315        C316   1.407       .  A
C315        C320   1.396   1_655  A
C316        C317   1.427       .  A
C316       Br327   1.939       .  S
C317        C318   1.459       .  A
C317       Br323   1.944       .  S
C318        C319   1.423   1_655  A
C319        C320   1.398       .  A
C319       Br328   1.927       .  S
C320       Br324   1.929       .  S
C329        C330   1.456       .  A
C329        C334   1.457       .  A
C330        C331   1.417       .  A
C330       Br342   1.939       .  S
C331        C332   1.398       .  A
C331       Br346   1.938       .  S
C332        C335   1.509       .  S
C332        C333   1.402       .  A
C333        C334   1.423       .  A
C333       Br341   1.940       .  S
C334       Br345   1.933       .  S
C335        C336   1.410       .  A
C335        C340   1.411       .  A
C336        C337   1.417       .  A
C336       Br347   1.933       .  S
C337        C338   1.426       .  A
C337       Br343   1.933       .  S
C338        C339   1.422       .  A
C339        C340   1.416       .  A
C339       Br348   1.933       .  S
C340       Br344   1.930       .  S
C349        C350   1.457       .  A
C349        C354   1.456       .  A
C350        C351   1.421       .  A
C350       Br362   1.913       .  S
C351        C352   1.395       .  A
C351       Br366   1.947       .  S
C352        C355   1.494       .  S
C352        C353   1.394       .  A
C353        C354   1.415       .  A
C353       Br361   1.939       .  S
C354       Br365   1.931       .  S
C355        C356   1.411       .  A
C355        C360   1.407       .  A
C356        C357   1.411       .  A
C356       Br367   1.927       .  S
C357        C358   1.413       .  A
C357       Br363   1.931       .  S
C358        C359   1.413       .  A
C359        C360   1.409       .  A
C359       Br368   1.921       .  S
C360       Br364   1.932       .  S
C369        C370   1.457       .  A
C369        C374   1.463       .  A
C370        C371   1.417       .  A
C370       Br382   1.927       .  S
C371        C372   1.396       .  A
C371       Br386   1.940       .  S
C372        C375   1.503       .  S
C372        C373   1.397       .  A
C373        C374   1.421       .  A
C373       Br381   1.945       .  S
C374       Br385   1.932       .  S
C375        C376   1.409       .  A
C375        C380   1.409       .  A
C376        C377   1.414       .  A
C376       Br387   1.932       .  S
C377        C378   1.425       .  A
C377       Br383   1.935       .  S
C378        C379   1.424       .  A
C379        C380   1.414       .  A
C379       Br388   1.931       .  S
C380       Br384   1.934       .  S
C389        C390   1.468       .  A
C389        C394   1.457       .  A
C390        C391   1.424       .  A
C390       Br402   1.933       .  S
C391        C392   1.394       .  A
C391       Br406   1.952       .  S
C392        C395   1.499       .  S
C392        C393   1.394       .  A
C393        C394   1.418       .  A
C393       Br401   1.940       .  S
C394       Br405   1.929       .  S
C395        C396   1.410       .  A
C395        C400   1.412       .  A
C396        C397   1.410       .  A
C396       Br407   1.930       .  S
C397        C398   1.410       .  A
C397       Br403   1.922       .  S
C398        C399   1.412       .  A
C399        C400   1.413       .  A
C399       Br408   1.930       .  S
C400       Br404   1.928       .  S
O409        V417   1.913       .  S
O409        C419   1.267       .  A
O410        C420   1.265       .  A
O411        V417   1.909       .  S
O411        C421   1.265       .  A
O412        C422   1.266       .  A
O413        V418   1.915       .  S
O413        C422   1.267       .  A
O414        C421   1.270       .  A
O415        V418   1.908       .  S
O415        C420   1.266       .  A
O416        C419   1.264       .  A
C419        C806   1.487       .  S
C420        C766   1.487       .  S
C421        C746   1.514       .  S
C422        C786   1.511       .  S
O423        V431   1.914       .  S
O423        C433   1.267       .  A
O424        C434   1.269       .  A
O425        V431   1.898       .  S
O425        C435   1.263       .  A
O426        C436   1.264       .  A
O427        V432   1.896   1_556  S
O427        C436   1.263   1_655  A
O428        C435   1.263   1_655  A
O429        V432   1.910   1_556  S
O429        C434   1.266   1_655  A
O430        C433   1.265   1_655  A
C433        C717   1.488       .  S
C434        C686   1.496       .  S
C435        C666   1.478       .  S
C436        C706   1.481       .  S
O437        V445   1.909       .  S
O437        C447   1.265   1_545  A
O438        C448   1.264   1_545  A
O439        V445   1.913       .  S
O439        C449   1.268   1_545  A
O440        C450   1.270   1_545  A
O441        V446   1.894       .  S
O441        C450   1.262       .  A
O442        C449   1.263       .  A
O443        V446   1.915       .  S
O443        C448   1.267       .  A
O444        C447   1.270       .  A
C447        C586   1.501       .  S
C448        C626   1.510       .  S
C449        C637   1.484       .  S
C450        C606   1.514   1_565  S
C451        C537   1.625       .  S
C451        C557   1.626   1_455  S
C451        C657   1.613       .  S
C451        C677   1.630       .  S
C452        C506   1.628   1_655  S
C452        C517   1.602       .  S
C452        C697   1.598       .  S
C452        C726   1.628       .  S
C453        C477   1.626       .  S
C453        C497   1.631       .  S
C453        C777   1.625       .  S
C453        C797   1.630       .  S
C454        C486   1.593       .  S
C454        C546   1.620   1_545  S
C454        C617   1.615       .  S
C454        C646   1.627       .  S
C455        C457   1.606       .  S
C455        C526   1.600   1_565  S
C455        C577   1.635       .  S
C455        C597   1.620       .  S
C456        C466   1.626       .  S
C456        C566   1.619       .  S
C456        C737   1.618       .  S
C456        C757   1.618       .  S
C457        C458   1.449       .  A
C457        C462   1.449       .  A
C458        C459   1.422       .  A
C458       Br470   1.918       .  S
C459        C460   1.401       .  A
C459       Br474   1.938       .  S
C460        C463   1.507       .  S
C460        C461   1.398       .  A
C461        C462   1.412       .  A
C461       Br469   1.928       .  S
C462       Br473   1.935       .  S
C463        C464   1.396       .  A
C463        C468   1.404       .  A
C464        C465   1.412       .  A
C464       Br475   1.934       .  S
C465        C466   1.455       .  A
C465       Br471   1.945       .  S
C466        C467   1.456       .  A
C467        C468   1.426       .  A
C467       Br476   1.934       .  S
C468       Br472   1.937       .  S
C477        C478   1.465       .  A
C477        C482   1.451       .  A
C478        C479   1.423       .  A
C478       Br490   1.950       .  S
C479        C480   1.400       .  A
C479       Br494   1.943       .  S
C480        C483   1.510       .  S
C480        C481   1.401       .  A
C481        C482   1.422       .  A
C481       Br489   1.944       .  S
C482       Br493   1.922       .  S
C483        C484   1.409       .  A
C483        C488   1.406       .  A
C484        C485   1.419       .  A
C484       Br495   1.939       .  S
C485        C486   1.446       .  A
C485       Br491   1.938       .  S
C486        C487   1.434       .  A
C487        C488   1.413       .  A
C487       Br496   1.924   1_545  S
C488       Br492   1.934       .  S
C497        C498   1.453       .  A
C497        C502   1.464       .  A
C498        C499   1.421       .  A
C498       Br510   1.925       .  S
C499        C500   1.403       .  A
C499       Br514   1.947       .  S
C500        C503   1.514       .  S
C500        C501   1.401       .  A
C501        C502   1.428       .  A
C501       Br509   1.940       .  S
C502       Br513   1.949       .  S
C503        C504   1.398       .  A
C503        C508   1.405       .  A
C504        C505   1.410       .  A
C504       Br515   1.934       .  S
C505        C506   1.449       .  A
C505       Br511   1.942   1_455  S
C506        C507   1.454       .  A
C507        C508   1.426       .  A
C507       Br516   1.932       .  S
C508       Br512   1.941       .  S
C517        C518   1.452       .  A
C517        C522   1.453       .  A
C518        C519   1.420       .  A
C518       Br530   1.950       .  S
C519        C520   1.403       .  A
C519       Br534   1.933       .  S
C520        C523   1.506       .  S
C520        C521   1.401       .  A
C521        C522   1.417       .  A
C521       Br529   1.942       .  S
C522       Br533   1.942       .  S
C523        C524   1.402       .  A
C523        C528   1.403       .  A
C524        C525   1.416       .  A
C524       Br535   1.935       .  S
C525        C526   1.452       .  A
C525       Br531   1.951       .  S
C526        C527   1.455       .  A
C527        C528   1.420       .  A
C527       Br536   1.947   1_545  S
C528       Br532   1.941       .  S
C537        C538   1.458       .  A
C537        C542   1.453       .  A
C538        C539   1.421       .  A
C538       Br550   1.948       .  S
C539        C540   1.400       .  A
C539       Br554   1.940       .  S
C540        C543   1.508       .  S
C540        C541   1.402       .  A
C541        C542   1.423       .  A
C541       Br549   1.940       .  S
C542       Br553   1.927       .  S
C543        C544   1.400       .  A
C543        C548   1.405       .  A
C544        C545   1.417       .  A
C544       Br555   1.940       .  S
C545        C546   1.447       .  A
C545       Br551   1.927   1_565  S
C546        C547   1.446       .  A
C547        C548   1.422       .  A
C547       Br556   1.933       .  S
C548       Br552   1.935       .  S
C557        C558   1.460       .  A
C557        C562   1.451       .  A
C558        C559   1.412       .  A
C558       Br570   1.944       .  S
C559        C560   1.394       .  A
C559       Br574   1.937       .  S
C560        C563   1.507       .  S
C560        C561   1.404       .  A
C561        C562   1.427       .  A
C561       Br569   1.935       .  S
C562       Br573   1.927       .  S
C563        C564   1.403       .  A
C563        C568   1.395       .  A
C564        C565   1.424       .  A
C564       Br575   1.935       .  S
C565        C566   1.452       .  A
C565       Br571   1.931       .  S
C566        C567   1.459       .  A
C567        C568   1.412       .  A
C567       Br576   1.946       .  S
C568       Br572   1.935       .  S
C577        C578   1.433       .  A
C577        C582   1.459   1_565  A
C578        C579   1.407       .  A
C578       Br590   1.933       .  S
C579        C580   1.396       .  A
C579       Br594   1.932       .  S
C580        C583   1.504       .  S
C580        C581   1.405   1_565  A
C581        C582   1.428       .  A
C581       Br589   1.937       .  S
C582       Br593   1.947       .  S
C583        C584   1.412       .  A
C583        C588   1.410   1_565  A
C584        C585   1.413       .  A
C584       Br595   1.931       .  S
C585        C586   1.414       .  A
C585       Br591   1.926       .  S
C586        C587   1.418   1_565  A
C587        C588   1.417       .  A
C587       Br596   1.929       .  S
C588       Br592   1.929       .  S
C597        C598   1.436       .  A
C597        C602   1.460   1_565  A
C598        C599   1.410       .  A
C598       Br610   1.925       .  S
C599        C600   1.401   1_565  A
C599       Br614   1.932       .  S
C600        C603   1.500       .  S
C600        C601   1.400       .  A
C601        C602   1.418       .  A
C601       Br609   1.943       .  S
C602       Br613   1.940       .  S
C603        C604   1.408       .  A
C603        C608   1.408   1_545  A
C604        C605   1.417       .  A
C604       Br615   1.932       .  S
C605        C606   1.427       .  A
C605       Br611   1.932       .  S
C606        C607   1.429   1_545  A
C607        C608   1.412       .  A
C607       Br616   1.938       .  S
C608       Br612   1.937       .  S
C617        C618   1.439       .  A
C617        C622   1.443       .  A
C618        C619   1.406       .  A
C618       Br630   1.927       .  S
C619        C620   1.396       .  A
C619       Br634   1.934       .  S
C620        C623   1.495       .  S
C620        C621   1.401       .  A
C621        C622   1.420       .  A
C621       Br629   1.940   1_545  S
C622       Br633   1.907       .  S
C623        C624   1.407       .  A
C623        C628   1.405   1_545  A
C624        C625   1.411       .  A
C624       Br635   1.937       .  S
C625        C626   1.427   1_545  A
C625       Br631   1.937       .  S
C626        C627   1.426       .  A
C627        C628   1.415       .  A
C627       Br636   1.931       .  S
C628       Br632   1.931       .  S
C637        C638   1.410       .  A
C637        C642   1.410       .  A
C638        C639   1.411       .  A
C638       Br650   1.930   1_565  S
C639        C640   1.414       .  A
C639       Br654   1.931   1_565  S
C640        C643   1.501       .  S
C640        C641   1.415       .  A
C641        C642   1.412       .  A
C641       Br649   1.928       .  S
C642       Br653   1.929       .  S
C643        C644   1.408   1_565  A
C643        C648   1.407       .  A
C644        C645   1.410       .  A
C644       Br655   1.933       .  S
C645        C646   1.437       .  A
C645       Br651   1.932       .  S
C646        C647   1.438   1_545  A
C647        C648   1.420       .  A
C647       Br656   1.928       .  S
C648       Br652   1.932       .  S
C657        C658   1.458   1_455  A
C657        C662   1.461       .  A
C658        C659   1.411       .  A
C658       Br670   1.934       .  S
C659        C660   1.392   1_655  A
C659       Br674   1.941       .  S
C660        C663   1.486       .  S
C660        C661   1.394       .  A
C661        C662   1.418       .  A
C661       Br669   1.947       .  S
C662       Br673   1.929       .  S
C663        C664   1.408       .  A
C663        C668   1.409   1_455  A
C664        C665   1.407       .  A
C664       Br675   1.931       .  S
C665        C666   1.415       .  A
C665       Br671   1.932       .  S
C666        C667   1.411   1_455  A
C667        C668   1.404       .  A
C667       Br676   1.934       .  S
C668       Br672   1.925       .  S
C677        C678   1.458       .  A
C677        C682   1.461   1_455  A
C678        C679   1.419       .  A
C678       Br690   1.931       .  S
C679        C680   1.395       .  A
C679       Br694   1.941       .  S
C680        C683   1.508       .  S
C680        C681   1.399   1_455  A
C681        C682   1.428       .  A
C681       Br689   1.943       .  S
C682       Br693   1.928       .  S
C683        C684   1.413   1_455  A
C683        C688   1.413       .  A
C684        C685   1.416   1_655  A
C684       Br695   1.929       .  S
C685        C686   1.414       .  A
C685       Br691   1.930   1_455  S
C686        C687   1.413       .  A
C687        C688   1.415       .  A
C687       Br696   1.930       .  S
C688       Br692   1.928       .  S
C697        C698   1.438       .  A
C697        C702   1.447   1_655  A
C698        C699   1.409       .  A
C698       Br710   1.913       .  S
C699        C700   1.398       .  A
C699       Br714   1.941       .  S
C700        C703   1.490   1_655  S
C700        C701   1.400   1_655  A
C701        C702   1.418       .  A
C701       Br709   1.935       .  S
C702       Br713   1.935       .  S
C703        C704   1.410       .  A
C703        C708   1.410   1_455  A
C704        C705   1.407       .  A
C704       Br715   1.926       .  S
C705        C706   1.412       .  A
C705       Br711   1.934       .  S
C706        C707   1.415   1_455  A
C707        C708   1.408       .  A
C707       Br716   1.934   1_556  S
C708       Br712   1.932       .  S
C717        C718   1.414       .  A
C717        C722   1.412   1_455  A
C718        C719   1.414       .  A
C718       Br730   1.928       .  S
C719        C720   1.409       .  A
C719       Br734   1.929       .  S
C720        C723   1.495   1_455  S
C720        C721   1.412   1_455  A
C721        C722   1.409       .  A
C721       Br729   1.932       .  S
C722       Br733   1.932       .  S
C723        C724   1.407       .  A
C723        C728   1.396   1_655  A
C724        C725   1.427       .  A
C724       Br735   1.939       .  S
C725        C726   1.459       .  A
C725       Br731   1.944       .  S
C726        C727   1.423   1_655  A
C727        C728   1.398       .  A
C727       Br736   1.927       .  S
C728       Br732   1.929       .  S
C737        C738   1.456       .  A
C737        C742   1.457       .  A
C738        C739   1.417       .  A
C738       Br750   1.939       .  S
C739        C740   1.398       .  A
C739       Br754   1.938       .  S
C740        C743   1.509       .  S
C740        C741   1.402       .  A
C741        C742   1.423       .  A
C741       Br749   1.940       .  S
C742       Br753   1.933       .  S
C743        C744   1.410       .  A
C743        C748   1.411       .  A
C744        C745   1.417       .  A
C744       Br755   1.933       .  S
C745        C746   1.426       .  A
C745       Br751   1.933       .  S
C746        C747   1.422       .  A
C747        C748   1.416       .  A
C747       Br756   1.933       .  S
C748       Br752   1.930       .  S
C757        C758   1.457       .  A
C757        C762   1.456       .  A
C758        C759   1.421       .  A
C758       Br770   1.913       .  S
C759        C760   1.395       .  A
C759       Br774   1.947       .  S
C760        C763   1.494       .  S
C760        C761   1.394       .  A
C761        C762   1.414       .  A
C761       Br769   1.939       .  S
C762       Br773   1.931       .  S
C763        C764   1.411       .  A
C763        C768   1.407       .  A
C764        C765   1.411       .  A
C764       Br775   1.927       .  S
C765        C766   1.413       .  A
C765       Br771   1.931       .  S
C766        C767   1.413       .  A
C767        C768   1.409       .  A
C767       Br776   1.921       .  S
C768       Br772   1.932       .  S
C777        C778   1.457       .  A
C777        C782   1.463       .  A
C778        C779   1.417       .  A
C778       Br790   1.927       .  S
C779        C780   1.396       .  A
C779       Br794   1.940       .  S
C780        C783   1.503       .  S
C780        C781   1.397       .  A
C781        C782   1.421       .  A
C781       Br789   1.945       .  S
C782       Br793   1.932       .  S
C783        C784   1.409       .  A
C783        C788   1.409       .  A
C784        C785   1.414       .  A
C784       Br795   1.932       .  S
C785        C786   1.425       .  A
C785       Br791   1.935       .  S
C786        C787   1.424       .  A
C787        C788   1.414       .  A
C787       Br796   1.931       .  S
C788       Br792   1.934       .  S
C797        C798   1.468       .  A
C797        C802   1.457       .  A
C798        C799   1.424       .  A
C798       Br810   1.933       .  S
C799        C800   1.394       .  A
C799       Br814   1.952       .  S
C800        C803   1.499       .  S
C800        C801   1.394       .  A
C801        C802   1.418       .  A
C801       Br809   1.940       .  S
C802       Br813   1.929       .  S
C803        C804   1.410       .  A
C803        C808   1.412       .  A
C804        C805   1.410       .  A
C804       Br815   1.930       .  S
C805        C806   1.410       .  A
C805       Br811   1.922       .  S
C806        C807   1.412       .  A
C807        C808   1.413       .  A
C807       Br816   1.930       .  S
C808       Br812   1.928       .  S
