geometry optimzed in LAMMPS
_audit_creation_date              2020-11-30 
_audit_creation_method            'lammps2cif' 
_symmetry_space_group_name_H-M    'P1' 
_symmetry_Int_Tables_number       1 
_symmetry_cell_setting            triclinic 
loop_ 
_symmetry_equiv_pos_as_xyz 
  x,y,z 
_cell_length_a                    48.955953991940376 
_cell_length_b                    47.68516187680614 
_cell_length_c                    43.90685398804951 
_cell_angle_alpha                 90.92288980748076 
_cell_angle_beta                  90.90770832606749 
_cell_angle_gamma                 90.10003966481987 
loop_ 
_atom_site_label 
_atom_site_type_symbol 
_atom_site_fract_x 
_atom_site_fract_y 
_atom_site_fract_z 
_atom_site_charge 
Zr1        Zr  0.46419830  0.56681594  0.06784840     2.17510
O2          O  0.47528403  0.52974093  0.03132266    -0.51680
O3          O  0.49364640  0.54226990  0.10522928    -0.74880
O4          O  0.50036687  0.57716330  0.03148789    -0.81670
O5          O  0.40238122  0.53240582  0.10375873    -0.83410
O6          O  0.51407648  0.61075979  0.06172634    -0.79040
O7          O  0.42719914  0.53447325  0.06208237    -0.90670
O8          O  0.49031320  0.56153689  0.15219084    -0.76640
O9          O  0.48632398  0.60293469  0.09690826    -0.86130
O10         O  0.43931660  0.56983278  0.11478754    -0.85820
O11         O  0.45747213  0.60833263  0.03788690    -0.72570
O12         O  0.41626093  0.57708272  0.05742806    -0.84710
Zr13       Zr  0.41048997  0.66071094  0.09518098     2.26420
Zr14       Zr  0.47921772  0.64476180  0.06772619     2.06270
Zr15       Zr  0.39184722  0.58327508  0.10471772     2.10050
Zr16       Zr  0.46163283  0.60449122  0.14325863     1.78760
O17         O  0.35214433  0.56337484  0.07816939    -0.93510
O18         O  0.50484642  0.62538124  0.16026888    -0.41320
O19         O  0.41560789  0.62084740  0.12982411    -0.77950
O20         O  0.45452072  0.64562365  0.11382048    -0.96640
O21         O  0.43403623  0.65540981  0.04958889    -0.89940
O22         O  0.38690613  0.62249619  0.07125110    -0.92790
C23         C  0.49932773  0.54217062  0.13396937     1.00970
C24         C  0.41866011  0.52075871  0.08459452     1.13900
C25         C  0.51422754  0.59953844  0.03555685     1.04680
O26         O  0.52039985  0.67333360  0.06858404    -0.94940
O27         O  0.48612801  0.68469145  0.09987801    -0.90680
O28         O  0.44316727  0.69818407  0.11090446    -0.83830
C29         C  0.46940871  0.70128492  0.11263499     1.11320
O30         O  0.42220150  0.58511895  0.48263507    -0.96910
Zr31       Zr  0.41074191  0.61644474  0.02489650     1.88940
O32         O  0.37701123  0.67791716  0.05352158    -0.73560
O33         O  0.47945399  0.66916458  0.01920687    -0.52820
O34         O  0.42508845  0.64568132  0.48295374    -0.97500
O35         O  0.37282555  0.58731940  0.00638674    -0.54720
O36         O  0.37362007  0.64800806  0.01307557    -0.74080
C37         C  0.36633411  0.67036859  0.02698546     0.98260
O38         O  0.39362429  0.70755887  0.10551766    -0.62900
O39         O  0.37600095  0.56652170  0.15346880    -0.57700
O40         O  0.38298305  0.65433128  0.13802859    -0.94390
O41         O  0.35653457  0.61736130  0.12573452    -0.92810
O42         O  0.43786233  0.58118389  0.18409754    -0.93170
O43         O  0.45983267  0.63284105  0.18981150    -0.91950
C44         C  0.35981983  0.64265101  0.13682343     1.17110
H45         H  0.44115005  0.55302068  0.12660326     0.33050
H46         H  0.46060730  0.65692411  0.13090290     0.43900
H47         H  0.36777207  0.62641563  0.06778861     0.37430
H48         H  0.46527989  0.60733028  0.01804027     0.33910
H49         H  0.51621778  0.60943169  0.16702944     0.25700
H50         H  0.49821953  0.67628395  0.01647726     0.31630
H51         H  0.40957336  0.64541824  0.46820946     0.37540
H52         H  0.45249365  0.57242884  0.19650795     0.32000
H53         H  0.36059743  0.55379503  0.14811954     0.30880
H54         H  0.33729144  0.56466364  0.09316786     0.32560
H55         H  0.36584469  0.59669216  0.48785453     0.31530
H56         H  0.44438960  0.64586033  0.18638154     0.35530
H57         H  0.37349940  0.70633981  0.10368815     0.28260
H58         H  0.47044433  0.53701880  0.01096371     0.32490
H59         H  0.41353445  0.59326486  0.46428176     0.35340
H60         H  0.39067272  0.55393433  0.16079416     0.27950
H61         H  0.39744531  0.70962099  0.12752837     0.40830
H62         H  0.53133227  0.66632325  0.08605901     0.30880
H63         H  0.51360080  0.63183509  0.14144523     0.38500
H64         H  0.35830079  0.59021167  0.02154184     0.30350
H65         H  0.47697639  0.65453974  0.00320193     0.30410
H66         H  0.49535303  0.52730149  0.53140111     0.30680
Zr67       Zr  0.45389974  0.92808793  0.08699923     2.17510
O68         O  0.45979322  0.96545163  0.12492106    -0.51680
O69         O  0.49091697  0.94731020  0.05817456    -0.74880
O70         O  0.49043078  0.92052254  0.12501572    -0.81670
O71         O  0.38661638  0.95922291  0.05271989    -0.83410
O72         O  0.50302085  0.88805924  0.09351990    -0.79040
O73         O  0.42914122  0.96931870  0.07229896    -0.90670
O74         O  0.48946413  0.92934322  0.01039225    -0.76640
O75         O  0.47873099  0.89192376  0.06184654    -0.86130
O76         O  0.43220157  0.92285640  0.03789069    -0.85820
O77         O  0.44667414  0.88779866  0.11825355    -0.72570
O78         O  0.40584770  0.91833569  0.09429977    -0.84710
Zr79       Zr  0.40324894  0.83249259  0.05759640     2.26420
Zr80       Zr  0.47060807  0.85109452  0.09157626     2.06270
Zr81       Zr  0.38516110  0.90897241  0.04477703     2.10050
Zr82       Zr  0.45750412  0.88759463  0.01350254     1.78760
O83         O  0.34120853  0.93051055  0.05539509    -0.93510
O84         O  0.50066585  0.86477646  0.50178314    -0.41320
O85         O  0.41121487  0.87167036  0.02356900    -0.77950
O86         O  0.44903179  0.84575508  0.04262336    -0.96640
O87         O  0.42461757  0.84165929  0.10491840    -0.89940
O88         O  0.37836067  0.87070871  0.07898696    -0.92790
C89         C  0.49867036  0.94747870  0.03048963     1.00970
C90         C  0.40520215  0.97614920  0.06267402     1.13900
C91         C  0.50513625  0.89911391  0.11971101     1.04680
O92         O  0.51224112  0.82354672  0.09175705    -0.94940
O93         O  0.46759761  0.80713252  0.06653690    -0.90680
O94         O  0.42642497  0.79192472  0.07719578    -0.83830
C95         C  0.45230457  0.78969867  0.07891453     1.11320
O96         O  0.40780096  0.91383605  0.16789205    -0.96910
Zr97       Zr  0.39948475  0.87942793  0.12711040     1.88940
O98         O  0.36705582  0.81436436  0.09428925    -0.73560
O99         O  0.47310696  0.83080669  0.14223484    -0.52820
O100        O  0.41281278  0.85621537  0.17409238    -0.97500
O101        O  0.35782365  0.90539191  0.13808591    -0.54720
O102        O  0.36617705  0.84279334  0.13646925    -0.74080
C103        C  0.35808331  0.82090674  0.12159292     0.98260
O104        O  0.40453204  0.79222480  0.52262726    -0.62900
O105        O  0.38112106  0.92078903  0.99114680    -0.57700
O106        O  0.37734913  0.84373507  0.01416674    -0.94390
O107        O  0.34814828  0.87637022  0.02803859    -0.92810
O108        O  0.43938702  0.91221042  0.46941368    -0.93170
O109        O  0.45602063  0.86000489  0.46634113    -0.91950
C110        C  0.35321056  0.85160576  0.01778356     1.17110
H111        H  0.43341859  0.93962431  0.02592774     0.33050
H112        H  0.45552615  0.83202742  0.02798872     0.43900
H113        H  0.35921764  0.86653094  0.08138366     0.37430
H114        H  0.45434298  0.89033767  0.13834786     0.33910
H115        H  0.50989307  0.87774395  0.48785952     0.25700
H116        H  0.49245110  0.82629566  0.14646994     0.31630
H117        H  0.39612996  0.85604966  0.18654713     0.37540
H118        H  0.45558108  0.92062924  0.45986190     0.32000
H119        H  0.36163590  0.91755088  0.98580015     0.30880
H120        H  0.33391244  0.93600157  0.03519392     0.32560
H121        H  0.34863128  0.89449719  0.15398160     0.31530
H122        H  0.44102487  0.84638160  0.46920630     0.35530
H123        H  0.39582507  0.79781990  0.50317802     0.28260
H124        H  0.47914552  0.97139564  0.12410872     0.32490
H125        H  0.39447489  0.90950913  0.18388856     0.35340
H126        H  0.38332111  0.94142522  0.99081433     0.27950
H127        H  0.42402816  0.78992384  0.51748969     0.40830
H128        H  0.51970754  0.82604465  0.07114061     0.30880
H129        H  0.51156730  0.86601624  0.02094645     0.38500
H130        H  0.34606282  0.90286699  0.11969872     0.30350
H131        H  0.46837295  0.84589130  0.15688588     0.30410
H132        H  0.45825950  0.95610202  0.14478246     0.30680
Zr133      Zr  0.12914196  0.93312028  0.31881492     2.17510
O134        O  0.11914581  0.97621796  0.29185309    -0.51680
O135        O  0.09235766  0.95480062  0.34862276    -0.74880
O136        O  0.09981985  0.92650945  0.27395698    -0.81670
O137        O  0.18803125  0.96294125  0.36755809    -0.83410
O138        O  0.07945638  0.89405286  0.29977315    -0.79040
O139        O  0.16187529  0.96945601  0.32532023    -0.90670
O140        O  0.08503655  0.92830620  0.39013093    -0.76640
O141        O  0.10174957  0.89702801  0.33945214    -0.86130
O142        O  0.14713575  0.92577517  0.36913547    -0.85820
O143        O  0.13784341  0.89365554  0.28493476    -0.72570
O144        O  0.17745274  0.92256348  0.31462564    -0.84710
Zr145      Zr  0.17504951  0.83592978  0.34410346     2.26420
Zr146      Zr  0.11101972  0.85742899  0.30719954     2.06270
Zr147      Zr  0.19468874  0.91171552  0.36488571     2.10050
Zr148      Zr  0.12007914  0.88987169  0.38874730     1.78760
O149        O  0.23744138  0.93372617  0.35066709    -0.93510
O150        O  0.07821187  0.86398040  0.39824887    -0.41320
O151        O  0.16651585  0.87410750  0.38041472    -0.77950
O152        O  0.12901673  0.84909562  0.35707529    -0.96640
O153        O  0.15731741  0.84648335  0.29588536    -0.89940
O154        O  0.20266127  0.87414628  0.32870389    -0.92790
C155        C  0.07915734  0.94942445  0.37297466     1.00970
C156        C  0.17511619  0.97872003  0.34866228     1.13900
C157        C  0.08246714  0.90674961  0.27510825     1.04680
O158        O  0.06677256  0.83463800  0.30142598    -0.94940
O159        O  0.10582955  0.81319832  0.32838612    -0.90680
O160        O  0.14820465  0.79795575  0.32137899    -0.83830
C161        C  0.12230656  0.79456689  0.32005190     1.11320
O162        O  0.17865938  0.91949157  0.24034039    -0.96910
Zr163      Zr  0.18520879  0.88443159  0.27961032     1.88940
O164        O  0.21183772  0.81699680  0.30852726    -0.73560
O165        O  0.10828816  0.83440998  0.25733409    -0.52820
O166        O  0.17642083  0.86023332  0.23111699    -0.97500
O167        O  0.22788456  0.90981483  0.27299349    -0.54720
O168        O  0.21804648  0.84739891  0.26986505    -0.74080
C169        C  0.22337106  0.82425511  0.28302722     0.98260
O170        O  0.17549584  0.79608605  0.37805137    -0.62900
O171        O  0.20299293  0.92151271  0.41882925    -0.57700
O172        O  0.20018124  0.83948854  0.38972203    -0.94390
O173        O  0.22834260  0.87578901  0.38364049    -0.92810
O174        O  0.13466000  0.91611963  0.43424803    -0.93170
O175        O  0.12167347  0.86307747  0.43549852    -0.91950
C176        C  0.22375475  0.84998480  0.39088091     1.17110
H177        H  0.14476824  0.94227676  0.38185543     0.33050
H178        H  0.12162234  0.83442450  0.36946868     0.43900
H179        H  0.22177248  0.86928143  0.32774179     0.37430
H180        H  0.13270039  0.89572841  0.26392905     0.33910
H181        H  0.06760307  0.87639824  0.41192678     0.25700
H182        H  0.09035709  0.83954998  0.24843111     0.31630
H183        H  0.19293127  0.86339305  0.21888437     0.37540
H184        H  0.11796134  0.92567179  0.44144012     0.32000
H185        H  0.22072359  0.93154226  0.41957572     0.30880
H186        H  0.25007740  0.91789791  0.34694093     0.32560
H187        H  0.23600023  0.90126158  0.25454475     0.31530
H188        H  0.13578666  0.84861261  0.43183044     0.35530
H189        H  0.16261374  0.80124975  0.39438084     0.28260
H190        H  0.09898546  0.97762794  0.29045723     0.32490
H191        H  0.19259876  0.91539627  0.22480789     0.35340
H192        H  0.18937881  0.93600755  0.42425891     0.27950
H193        H  0.16647249  0.78010271  0.36735649     0.40830
H194        H  0.05836502  0.83671178  0.32171943     0.30880
H195        H  0.06800688  0.86419430  0.37860296     0.38500
H196        H  0.23991389  0.90365715  0.28992335     0.30350
H197        H  0.12204505  0.84384899  0.24482874     0.30410
H198        H  0.12520425  0.97301406  0.27066873     0.30680
Zr199      Zr  0.12422854  0.56092145  0.33834017     2.17510
O200        O  0.11638909  0.52031223  0.37001927    -0.51680
O201        O  0.09056336  0.53473115  0.30844395    -0.74880
O202        O  0.08915112  0.56767028  0.37718263    -0.81670
O203        O  0.19843240  0.53659308  0.31112208    -0.83410
O204        O  0.07404233  0.59831057  0.34564917    -0.79040
O205        O  0.15692101  0.52488812  0.33018322    -0.90670
O206        O  0.08363468  0.55780414  0.26451382    -0.76640
O207        O  0.09716883  0.59480068  0.31278773    -0.86130
O208        O  0.14622402  0.56549264  0.29016598    -0.85820
O209        O  0.12900505  0.60260318  0.36993708    -0.72570
O210        O  0.17150030  0.57485510  0.34629823    -0.84710
Zr211      Zr  0.16963083  0.65843642  0.31196813     2.26420
Zr212      Zr  0.10377965  0.63751758  0.34220154     2.06270
Zr213      Zr  0.19207860  0.58463615  0.29752047     2.10050
Zr214      Zr  0.11837782  0.59785161  0.26519732     1.78760
O215        O  0.23875210  0.56880177  0.30632010    -0.93510
O216        O  0.07662453  0.62194206  0.24987614    -0.41320
O217        O  0.16379929  0.61916394  0.27539316    -0.77950
O218        O  0.12594343  0.64020516  0.29466556    -0.96640
O219        O  0.14879480  0.65128413  0.35861573    -0.89940
O220        O  0.19661729  0.62254900  0.33327469    -0.92790
C221        C  0.07814361  0.53734703  0.28281833     1.00970
C222        C  0.18152888  0.51947827  0.32259705     1.13900
C223        C  0.07341269  0.58825771  0.37198349     1.04680
O224        O  0.06121505  0.66356910  0.34479489    -0.94940
O225        O  0.09314616  0.67728178  0.31212706    -0.90680
O226        O  0.13498508  0.69434941  0.30201782    -0.83830
C227        C  0.10869743  0.69545298  0.30058974     1.11320
O228        O  0.16682488  0.58090256  0.42113978    -0.96910
Zr229      Zr  0.17535922  0.61391517  0.38055504     1.88940
O230        O  0.20428639  0.67698307  0.35237288    -0.73560
O231        O  0.10421301  0.66155167  0.39173430    -0.52820
O232        O  0.16198272  0.64156811  0.42503678    -0.97500
O233        O  0.21601369  0.58790317  0.39554629    -0.54720
O234        O  0.21098211  0.64726861  0.39152212    -0.74080
C235        C  0.21659864  0.66982833  0.37790068     0.98260
O236        O  0.18189939  0.70607132  0.30008500    -0.62900
O237        O  0.19436647  0.56805646  0.24490456    -0.57700
O238        O  0.19768109  0.65613004  0.26895449    -0.94390
O239        O  0.22558890  0.62017009  0.27878865    -0.92810
O240        O  0.13610826  0.56857890  0.22407984    -0.93170
O241        O  0.11939484  0.62070646  0.21603743    -0.91950
C242        C  0.22115072  0.64519670  0.26891230     1.17110
H243        H  0.14641585  0.54790668  0.27892445     0.33050
H244        H  0.11879754  0.65171547  0.27865372     0.43900
H245        H  0.21565149  0.62754062  0.33575679     0.37430
H246        H  0.12198967  0.60087312  0.39005279     0.33910
H247        H  0.06500864  0.60720005  0.24017520     0.25700
H248        H  0.08511085  0.66635472  0.39641449     0.31630
H249        H  0.17792344  0.64103822  0.43917762     0.37540
H250        H  0.12081781  0.55589111  0.21820896     0.32000
H251        H  0.21245614  0.57438821  0.23791736     0.30880
H252        H  0.24546419  0.56356669  0.28584952     0.32560
H253        H  0.22326985  0.59768407  0.41403080     0.31530
H254        H  0.13088150  0.63758333  0.21966936     0.35530
H255        H  0.20201361  0.70666550  0.30259026     0.28260
H256        H  0.09775517  0.51357943  0.36465509     0.32490
H257        H  0.17668293  0.58846095  0.43934971     0.35340
H258        H  0.19608777  0.54743496  0.24636852     0.27950
H259        H  0.17849328  0.70662493  0.27786466     0.40830
H260        H  0.05018367  0.65703740  0.32691684     0.30880
H261        H  0.06743358  0.62657154  0.26924315     0.38500
H262        H  0.22948908  0.59187253  0.37958901     0.30350
H263        H  0.10959791  0.64740111  0.40685891     0.30410
H264        H  0.11514929  0.52729182  0.39128935     0.30680
Zr265      Zr  0.25829356  0.75639846  0.40613664     2.17510
O266        O  0.21444363  0.75020582  0.38063110    -0.51680
O267        O  0.27755781  0.75522601  0.35652529    -0.74880
O268        O  0.23990740  0.80385318  0.39617881    -0.81670
O269        O  0.25395666  0.67965745  0.41525154    -0.83410
O270        O  0.26410845  0.83939465  0.41846363    -0.79040
O271        O  0.23629754  0.71469226  0.38620860    -0.90670
O272        O  0.32331336  0.74826482  0.35993573    -0.76640
O273        O  0.29646084  0.78665670  0.40964823    -0.86130
O274        O  0.29686958  0.72576056  0.40888447    -0.85820
O275        O  0.24901434  0.78280133  0.45135321    -0.72570
O276        O  0.25210563  0.72636066  0.44896774    -0.84710
Zr277      Zr  0.32213789  0.75686440  0.50233922     2.26420
Zr278      Zr  0.28833431  0.81280193  0.45583590     2.06270
Zr279      Zr  0.29181739  0.69687538  0.45238103     2.10050
Zr280      Zr  0.33513938  0.75622557  0.41327245     1.78760
O281        O  0.26911085  0.65939513  0.47929132    -0.93510
O282        O  0.35529665  0.79532241  0.38641564    -0.41320
O283        O  0.33060273  0.72812851  0.45779478    -0.77950
O284        O  0.32910588  0.78471656  0.45816074    -0.96640
O285        O  0.28236686  0.78489622  0.50022683    -0.89940
O286        O  0.28473011  0.72462957  0.49742082    -0.92790
C287        C  0.30068343  0.74959377  0.34496845     1.00970
C288        C  0.23734985  0.68900570  0.39383857     1.13900
C289        C  0.24459119  0.83023325  0.40171744     1.04680
O290        O  0.31877634  0.84832355  0.43599574    -0.94940
O291        O  0.31142438  0.83895265  0.49500744    -0.90680
O292        O  0.33934240  0.80478923  0.01266960    -0.83830
C293        C  0.33266594  0.83077152  0.50909219     1.11320
O294        O  0.19675924  0.75692417  0.48000432    -0.96910
Zr295      Zr  0.24489761  0.75310608  0.99456198     1.88940
O296        O  0.30163349  0.75117153  0.05064784    -0.73560
O297        O  0.25591908  0.84377429  0.48125384    -0.52820
O298        O  0.22410641  0.79182863  0.02267403    -0.97500
O299        O  0.21870763  0.71148874  0.00723153    -0.54720
O300        O  0.25577489  0.74522976  0.04755189    -0.74080
C301        C  0.27856925  0.74589459  0.06219315     0.98260
O302        O  0.36025765  0.76402001  0.53824755    -0.62900
O303        O  0.31662822  0.66275540  0.42162083    -0.57700
O304        O  0.34683430  0.71507598  0.01742389    -0.94390
O305        O  0.32873056  0.67888627  0.48941520    -0.92810
O306        O  0.36219513  0.71557283  0.39846711    -0.93170
O307        O  0.38368369  0.76137411  0.42554780    -0.91950
C308        C  0.34561312  0.68900232  0.51042621     1.17110
H309        H  0.29779341  0.71359844  0.39114072     0.33050
H310        H  0.34504767  0.79659309  0.45999476     0.43900
H311        H  0.28416293  0.71190506  0.01427635     0.37430
H312        H  0.23235591  0.79348369  0.44945616     0.33910
H313        H  0.36693351  0.78642938  0.37076015     0.25700
H314        H  0.26083347  0.86290539  0.47477652     0.31630
H315        H  0.23924553  0.80051001  0.03472892     0.37540
H316        H  0.37055067  0.72076901  0.37895013     0.32000
H317        H  0.31334043  0.64457064  0.43150592     0.30880
H318        H  0.28194645  0.64339852  0.47831264     0.32560
H319        H  0.21079511  0.71582977  0.02737704     0.31530
H320        H  0.38546728  0.77936789  0.43696545     0.35530
H321        H  0.35454175  0.75593974  0.55778948     0.28260
H322        H  0.21399167  0.76464307  0.36469131     0.32490
H323        H  0.18663504  0.75721606  0.99932511     0.35340
H324        H  0.30624108  0.66141607  0.40211992     0.27950
H325        H  0.37564406  0.75213833  0.53150541     0.40830
H326        H  0.33040682  0.83805559  0.42136056     0.30880
H327        H  0.33996870  0.80360857  0.37467282     0.38500
H328        H  0.23261869  0.69694715  0.01139579     0.30350
H329        H  0.23794284  0.83999666  0.47138125     0.30410
H330        H  0.20119671  0.75609977  0.39625182     0.30680
Zr331      Zr  0.25810621  0.73625204  0.24928733     2.17510
O332        O  0.20918642  0.74477576  0.24966861    -0.51680
O333        O  0.27657387  0.73904504  0.30027979    -0.74880
O334        O  0.23994937  0.69015907  0.26368439    -0.81670
O335        O  0.25672823  0.81285012  0.24283991    -0.83410
O336        O  0.25950969  0.65376151  0.23765627    -0.79040
O337        O  0.24195120  0.77859512  0.27445001    -0.90670
O338        O  0.32276698  0.74391593  0.29810624    -0.76640
O339        O  0.29632971  0.70565689  0.24785292    -0.86130
O340        O  0.29668101  0.76676875  0.24683178    -0.85820
O341        O  0.25096528  0.70699692  0.20516038    -0.72570
O342        O  0.25174770  0.76489914  0.20542331    -0.84710
Zr343      Zr  0.32261202  0.73423669  0.15682278     2.26420
Zr344      Zr  0.29012521  0.67685948  0.20279702     2.06270
Zr345      Zr  0.29087378  0.79504343  0.20287982     2.10050
Zr346      Zr  0.33483553  0.73619069  0.24545822     1.78760
O347        O  0.26482098  0.83058791  0.17592180    -0.93510
O348        O  0.35449910  0.69658576  0.27247159    -0.41320
O349        O  0.32921220  0.76402357  0.20089625    -0.77950
O350        O  0.32950410  0.70659101  0.20119543    -0.96640
O351        O  0.28381819  0.70443857  0.15811640    -0.89940
O352        O  0.28447023  0.76527779  0.15930957    -0.92790
C353        C  0.30019852  0.74368354  0.31241622     1.00970
C354        C  0.24241685  0.80422379  0.26608179     1.13900
C355        C  0.24238775  0.66376664  0.25672407     1.04680
O356        O  0.31642671  0.64233767  0.23103146    -0.94940
O357        O  0.32114142  0.65186431  0.16860775    -0.90680
O358        O  0.33995280  0.68739168  0.14182239    -0.83830
C359        C  0.33789840  0.66117405  0.14895748     1.11320
O360        O  0.19763312  0.73039141  0.17411582    -0.96910
Zr361      Zr  0.24563098  0.73545574  0.16131732     1.88940
O362        O  0.30308513  0.73576166  0.10624378    -0.73560
O363        O  0.26254301  0.64435994  0.17189893    -0.52820
O364        O  0.22372428  0.69664271  0.13365302    -0.97500
O365        O  0.21902750  0.77584233  0.14498607    -0.54720
O366        O  0.25691443  0.74097613  0.10879845    -0.74080
C367        C  0.27935375  0.74019395  0.09440015     0.98260
O368        O  0.37175492  0.74084161  0.15749200    -0.62900
O369        O  0.31763335  0.83135909  0.22920958    -0.57700
O370        O  0.33951521  0.77531834  0.13083046    -0.94390
O371        O  0.32488519  0.81084071  0.16211528    -0.92810
O372        O  0.36244244  0.77585247  0.26337082    -0.93170
O373        O  0.38319494  0.73305045  0.23342970    -0.91950
C374        C  0.33902834  0.80135311  0.13879427     1.17110
H375        H  0.29782987  0.77907653  0.26447947     0.33050
H376        H  0.34576977  0.69530208  0.19947846     0.43900
H377        H  0.28342270  0.77704442  0.14164356     0.37430
H378        H  0.23446596  0.69604389  0.20681476     0.33910
H379        H  0.36743456  0.70516910  0.28749135     0.25700
H380        H  0.26530084  0.62589455  0.18146354     0.31630
H381        H  0.23892753  0.68587466  0.12458645     0.37540
H382        H  0.37113439  0.76950575  0.28257322     0.32000
H383        H  0.30503751  0.84751035  0.23092939     0.30880
H384        H  0.27707762  0.84712174  0.17577166     0.32560
H385        H  0.20943029  0.76941857  0.12610866     0.31530
H386        H  0.38626008  0.71326153  0.22726087     0.35530
H387        H  0.37497347  0.75801401  0.16999565     0.28260
H388        H  0.20381119  0.74553124  0.27124849     0.32490
H389        H  0.19370471  0.74650561  0.18784759     0.35340
H390        H  0.31983901  0.82464900  0.25032361     0.27950
H391        H  0.37849218  0.72569332  0.17077876     0.40830
H392        H  0.31609476  0.64907960  0.25246507     0.30880
H393        H  0.33947304  0.68928050  0.28493973     0.38500
H394        H  0.23270096  0.78953965  0.13800895     0.30350
H395        H  0.24338581  0.64935065  0.17639473     0.30410
H396        H  0.20090456  0.72748828  0.24084106     0.30680
Zr397      Zr  0.61379770  0.91278668  0.17953010     2.17510
O398        O  0.57863498  0.92339630  0.14151902    -0.51680
O399        O  0.59153977  0.94875612  0.21022229    -0.74880
O400        O  0.57610797  0.88232425  0.18976003    -0.81670
O401        O  0.65402143  0.96771288  0.15516875    -0.83410
O402        O  0.58780273  0.83942954  0.20831093    -0.79040
O403        O  0.62563858  0.93830282  0.13264145    -0.90670
O404        O  0.60872444  0.94650653  0.25825164    -0.76640
O405        O  0.61927125  0.88881096  0.22677682    -0.86130
O406        O  0.64602863  0.94030681  0.20791055    -0.85820
O407        O  0.62683837  0.86453004  0.16946674    -0.72570
O408        O  0.65440723  0.90996220  0.15134182    -0.84710
Zr409      Zr  0.70822416  0.86815849  0.20717009     2.26420
Zr410      Zr  0.63672051  0.84217107  0.21775638     2.06270
Zr411      Zr  0.68694450  0.93784293  0.17917184     2.10050
Zr412      Zr  0.65096718  0.91665775  0.25456070     1.78760
O413        O  0.72087626  0.94433068  0.13977864    -0.93510
O414        O  0.62524999  0.89594435  0.29564317    -0.41320
O415        O  0.69197960  0.91307593  0.22482177    -0.77950
O416        O  0.67038569  0.87066306  0.24290534    -0.96640
O417        O  0.67413205  0.84018152  0.18335442    -0.89940
O418        O  0.70071215  0.89162832  0.16150367    -0.92790
C419        C  0.59088817  0.95568216  0.23862258     1.00970
C420        C  0.64313606  0.95831097  0.13087236     1.13900
C421        C  0.57059022  0.85728788  0.19791779     1.04680
O422        O  0.61721567  0.83124309  0.26687198    -0.94940
O423        O  0.66886409  0.80986220  0.24487966    -0.90680
O424        O  0.71001064  0.83146129  0.24201057    -0.83830
C425        C  0.69484682  0.81162580  0.25064414     1.11320
O426        O  0.63488410  0.87858704  0.09590493    -0.96910
Zr427      Zr  0.66552000  0.86358506  0.13681390     1.88940
O428        O  0.72776631  0.83478102  0.16730325    -0.73560
O429        O  0.62811461  0.79555835  0.19621568    -0.52820
O430        O  0.63859129  0.82402458  0.11719035    -0.97500
O431        O  0.69276981  0.87634906  0.09303280    -0.54720
O432        O  0.69769349  0.82628968  0.12861849    -0.74080
C433        C  0.72025276  0.82141257  0.14236873     0.98260
O434        O  0.75578160  0.85853556  0.22015397    -0.62900
O435        O  0.69277216  0.98556278  0.19984269    -0.57700
O436        O  0.74085323  0.90480291  0.22130955    -0.94390
O437        O  0.72740122  0.94806074  0.20770604    -0.92810
O438        O  0.66977765  0.96145249  0.27213917    -0.93170
O439        O  0.67802848  0.91411860  0.30147737    -0.91950
C440        C  0.74422284  0.93151923  0.22031105     1.17110
H441        H  0.64072762  0.95962950  0.21096119     0.33050
H442        H  0.67531888  0.86285204  0.26237036     0.43900
H443        H  0.71744231  0.89175457  0.15017672     0.37430
H444        H  0.61222548  0.85480078  0.15869395     0.33910
H445        H  0.62317612  0.91134170  0.31083153     0.25700
H446        H  0.61105786  0.78913720  0.20574179     0.31630
H447        H  0.64840844  0.81730769  0.09893569     0.37540
H448        H  0.65835806  0.96700955  0.28962255     0.32000
H449        H  0.67546596  0.99566975  0.19594692     0.30880
H450        H  0.71455019  0.93264156  0.12219869     0.32560
H451        H  0.68979235  0.86090097  0.07799952     0.31530
H452        H  0.69642755  0.90834926  0.29475518     0.35530
H453        H  0.75689943  0.86105035  0.24252619     0.28260
H454        H  0.56162329  0.91517477  0.14892998     0.32490
H455        H  0.63932777  0.86679291  0.07790550     0.35340
H456        H  0.69319081  0.98366821  0.22226807     0.27950
H457        H  0.75835823  0.83816174  0.21660671     0.40830
H458        H  0.60047214  0.84278452  0.26814411     0.30880
H459        H  0.60660009  0.89312669  0.28708072     0.38500
H460        H  0.71206499  0.87423478  0.09965173     0.30350
H461        H  0.62297631  0.79887447  0.17468889     0.30410
H462        H  0.58305305  0.91128183  0.12377032     0.30680
Zr463      Zr  0.96047143  0.91659498  0.20765182     2.17510
O464        O  0.97654774  0.91545237  0.26075005    -0.51680
O465        O  0.98341755  0.95232896  0.17899059    -0.74880
O466        O  0.99186667  0.89289413  0.17385870    -0.81670
O467        O  0.92477416  0.94654752  0.21810351    -0.83410
O468        O  0.99903733  0.84806279  0.18005009    -0.79040
O469        O  0.95923547  0.95668757  0.24438484    -0.90670
O470        O  0.96651506  0.94598161  0.13094010    -0.76640
O471        O  0.95836297  0.89009056  0.16093410    -0.86130
O472        O  0.92360492  0.93907933  0.17877799    -0.85820
O473        O  0.95521839  0.86633688  0.21686452    -0.72570
O474        O  0.91890588  0.90606214  0.23390011    -0.84710
Zr475      Zr  0.87376376  0.85420627  0.17351790     2.26420
Zr476      Zr  0.95015111  0.84039898  0.16850133     2.06270
Zr477      Zr  0.88238197  0.92762027  0.20601206     2.10050
Zr478      Zr  0.92486865  0.91354689  0.13256967     1.78760
O479        O  0.85671698  0.93887824  0.25177211    -0.93510
O480        O  0.95183387  0.89728827  0.08961141    -0.41320
O481        O  0.88259407  0.90266392  0.15903725    -0.77950
O482        O  0.91411713  0.86479503  0.14237385    -0.96640
O483        O  0.91084944  0.83223918  0.19940426    -0.89940
O484        O  0.87816122  0.87942881  0.22017919    -0.92790
C485        C  0.98391772  0.95729267  0.15041820     1.00970
C486        C  0.93380055  0.95946213  0.24081862     1.13900
C487        C  0.00741695  0.87338981  0.18265597     1.04680
O488        O  0.96581845  0.83219811  0.11678009    -0.94940
O489        O  0.91998703  0.79859765  0.15520052    -0.90680
O490        O  0.88664720  0.82338416  0.13481891    -0.83830
C491        C  0.89623188  0.80023029  0.14205985     1.11320
O492        O  0.94515527  0.86214069  0.29101629    -0.96910
Zr493      Zr  0.91545452  0.85741915  0.24619915     1.88940
O494        O  0.85723129  0.81779777  0.21189832    -0.73560
O495        O  0.97237265  0.79763852  0.18576452    -0.52820
O496        O  0.94421100  0.81660127  0.25528750    -0.97500
O497        O  0.89058533  0.87259318  0.29130765    -0.54720
O498        O  0.88349264  0.81967197  0.25503789    -0.74080
C499        C  0.86338525  0.80948146  0.23960814     0.98260
O500        O  0.83824314  0.85227712  0.13358413    -0.62900
O501        O  0.85936152  0.97055236  0.19075216    -0.57700
O502        O  0.82827945  0.87021708  0.18367670    -0.94390
O503        O  0.84982507  0.90757806  0.17147167    -0.92810
O504        O  0.90186799  0.95629872  0.11676436    -0.93170
O505        O  0.89926545  0.90860954  0.08478469    -0.91950
C506        C  0.82914443  0.89664505  0.18334338     1.17110
H507        H  0.92577375  0.95824881  0.17139738     0.33050
H508        H  0.91338942  0.85782172  0.12159670     0.43900
H509        H  0.86255106  0.87715074  0.23246692     0.37430
H510        H  0.97093439  0.85952228  0.22804977     0.33910
H511        H  0.95549369  0.91436532  0.07778899     0.25700
H512        H  0.98769788  0.79447288  0.17167294     0.31630
H513        H  0.93435984  0.80536130  0.27039069     0.37540
H514        H  0.91673001  0.96868104  0.10988856     0.32000
H515        H  0.85667501  0.98237396  0.20909290     0.30880
H516        H  0.84197196  0.95179456  0.24547155     0.32560
H517        H  0.87481897  0.85969861  0.29276164     0.31530
H518        H  0.88328855  0.89691042  0.08985321     0.35530
H519        H  0.84251724  0.86814162  0.12017096     0.28260
H520        H  0.99377446  0.92563036  0.26524214     0.32490
H521        H  0.93775960  0.84901165  0.30608377     0.35340
H522        H  0.87256354  0.98064199  0.17807900     0.27950
H523        H  0.84094778  0.83544113  0.12057653     0.40830
H524        H  0.98422513  0.84081833  0.11651535     0.30880
H525        H  0.96980138  0.89231961  0.09865838     0.38500
H526        H  0.88232916  0.89076085  0.28566725     0.30350
H527        H  0.98114488  0.80265315  0.20559181     0.30410
H528        H  0.97921399  0.89560690  0.26583154     0.30680
Zr529      Zr  0.60480299  0.58919893  0.45814199     2.17510
O530        O  0.56931161  0.57910647  0.99252569    -0.51680
O531        O  0.57865461  0.55086068  0.43492579    -0.74880
O532        O  0.57270164  0.62002706  0.43210818    -0.81670
O533        O  0.65850112  0.54711578  0.50597864    -0.83410
O534        O  0.58366655  0.66493477  0.43659583    -0.79040
O535        O  0.61886561  0.57165837  0.50910051    -0.90670
O536        O  0.59483942  0.54390387  0.38772807    -0.76640
O537        O  0.60873910  0.60998505  0.40964340    -0.86130
O538        O  0.63341363  0.55640085  0.43320421    -0.85820
O539        O  0.62031572  0.63705506  0.46709756    -0.72570
O540        O  0.64742731  0.59255349  0.48132941    -0.84710
Zr541      Zr  0.69972576  0.62668193  0.42629983     2.26420
Zr542      Zr  0.62904991  0.65613865  0.41684270     2.06270
Zr543      Zr  0.67658557  0.55979588  0.45876765     2.10050
Zr544      Zr  0.63652007  0.57667932  0.38472921     1.78760
O545        O  0.70963803  0.53901992  0.99358889    -0.93510
O546        O  0.60545906  0.59303263  0.34487022    -0.41320
O547        O  0.68080698  0.58106750  0.41113207    -0.77950
O548        O  0.65868584  0.62258084  0.39330232    -0.96640
O549        O  0.66882067  0.65828177  0.44956676    -0.89940
O550        O  0.69316800  0.60576674  0.47371909    -0.92790
C551        C  0.57747885  0.53797829  0.40905546     1.00970
C552        C  0.63804847  0.55614356  0.52063345     1.13900
C553        C  0.56688328  0.64490218  0.44074664     1.04680
O554        O  0.61267958  0.65638917  0.36421010    -0.94940
O555        O  0.66622747  0.68952513  0.40340238    -0.90680
O556        O  0.69745073  0.65907726  0.38698099    -0.83830
C557        C  0.68942190  0.68379564  0.39122325     1.11320
O558        O  0.63607204  0.62244099  0.04185899    -0.96910
Zr559      Zr  0.66120070  0.63746397  0.49741652     1.88940
O560        O  0.72266447  0.66240385  0.46363779    -0.73560
O561        O  0.61519900  0.70515684  0.41335969    -0.52820
O562        O  0.63536618  0.67733828  0.01689016    -0.97500
O563        O  0.69238140  0.62872022  0.04009583    -0.54720
O564        O  0.69341370  0.67499818  0.50088432    -0.74080
C565        C  0.71640249  0.67715892  0.48814240     0.98260
O566        O  0.73929879  0.62247160  0.39297069    -0.62900
O567        O  0.67047046  0.51010770  0.44602056    -0.57700
O568        O  0.73720940  0.59625750  0.43784012    -0.94390
O569        O  0.71779127  0.55380064  0.43169688    -0.92810
O570        O  0.65668249  0.53256093  0.36794366    -0.93170
O571        O  0.65694430  0.57781733  0.33453660    -0.91950
C572        C  0.73837683  0.56964961  0.43522602     1.17110
H573        H  0.62672332  0.53739131  0.43305182     0.33050
H574        H  0.66232831  0.62882944  0.37295760     0.43900
H575        H  0.70995455  0.60463419  0.48546500     0.37430
H576        H  0.60726981  0.64723860  0.47909560     0.33910
H577        H  0.60129368  0.57611126  0.33225736     0.25700
H578        H  0.59754532  0.70509671  0.40202996     0.31630
H579        H  0.64662999  0.68504347  0.03399588     0.37540
H580        H  0.64115621  0.52155219  0.35930104     0.32000
H581        H  0.65402301  0.50404765  0.45700486     0.30880
H582        H  0.71546209  0.52140108  0.48331396     0.32560
H583        H  0.69039618  0.64517924  0.05391864     0.31530
H584        H  0.67574817  0.58485111  0.33838578     0.35530
H585        H  0.73493504  0.60620334  0.37943071     0.28260
H586        H  0.55354469  0.58464125  0.97998417     0.32490
H587        H  0.63976928  0.63674510  0.05799271     0.35340
H588        H  0.66530256  0.50919384  0.42414425     0.27950
H589        H  0.73979126  0.63841728  0.37890694     0.40830
H590        H  0.59252686  0.65585315  0.36572916     0.30880
H591        H  0.58811804  0.59719734  0.35531244     0.38500
H592        H  0.71104070  0.63055671  0.03199121     0.30350
H593        H  0.61074498  0.71120030  0.43438626     0.30410
H594        H  0.57164085  0.59332948  0.00886607     0.30680
Zr595      Zr  0.98379453  0.58422168  0.43475365     2.17510
O596        O  0.02173838  0.55976681  0.41113174    -0.51680
O597        O  0.00742443  0.54800793  0.46437519    -0.74880
O598        O  0.01188892  0.61659736  0.46522098    -0.81670
O599        O  0.93255744  0.55994622  0.37126330    -0.83410
O600        O  0.99997019  0.66112944  0.46236740    -0.79040
O601        O  0.97615877  0.57566779  0.37845153    -0.90670
O602        O  0.98346760  0.54102171  0.00722332    -0.76640
O603        O  0.97276651  0.60324949  0.48353421    -0.86130
O604        O  0.95155916  0.55134595  0.45285148    -0.85820
O605        O  0.96662532  0.63151870  0.42625133    -0.72570
O606        O  0.94237173  0.59022734  0.41032733    -0.84710
Zr607      Zr  0.88316454  0.61969273  0.45578783     2.26420
Zr608      Zr  0.95333720  0.64946496  0.47626198     2.06270
Zr609      Zr  0.91211423  0.55500041  0.42001669     2.10050
Zr610      Zr  0.94081075  0.57034389  0.00159908     1.78760
O611        O  0.88992949  0.52929919  0.37807199    -0.93510
O612        O  0.96267663  0.58724355  0.04871795    -0.41320
O613        O  0.90055476  0.57355969  0.46849422    -0.77950
O614        O  0.92023670  0.61632690  0.99329030    -0.96640
O615        O  0.91642602  0.65205009  0.43982241    -0.89940
O616        O  0.89412962  0.60066284  0.40804238    -0.92790
C617        C  0.00459808  0.53634246  0.49035757     1.00970
C618        C  0.95590499  0.56694750  0.36105194     1.13900
C619        C  0.01744367  0.64167527  0.45809274     1.04680
O620        O  0.97408423  0.65403856  0.02685958    -0.94940
O621        O  0.91690117  0.67396771  0.00491177    -0.90680
O622        O  0.87861810  0.66526585  0.97677757    -0.83830
C623        C  0.89117462  0.67713725  0.99897907     1.11320
O624        O  0.95797941  0.62800066  0.34838270    -0.96910
Zr625      Zr  0.92800473  0.63373942  0.39163794     1.88940
O626        O  0.85940443  0.65111934  0.41725474    -0.73560
O627        O  0.95709325  0.69987787  0.46908954    -0.52820
O628        O  0.94914157  0.67937420  0.38461634    -0.97500
O629        O  0.90434211  0.62041503  0.34434108    -0.54720
O630        O  0.89138757  0.66687395  0.38502275    -0.74080
C631        C  0.86714769  0.66725989  0.39516950     0.98260
O632        O  0.84880612  0.62023241  0.99538093    -0.62900
O633        O  0.92551235  0.50662569  0.42764628    -0.57700
O634        O  0.84734470  0.58631826  0.44457547    -0.94390
O635        O  0.86678989  0.54415323  0.43391815    -0.92810
O636        O  0.92215529  0.52381844  0.01010981    -0.93170
O637        O  0.91175554  0.56875001  0.04608615    -0.91950
C638        C  0.84652695  0.55975087  0.43965109     1.17110
H639        H  0.95906117  0.53270529  0.45396955     0.33050
H640        H  0.91338314  0.62246553  0.01279089     0.43900
H641        H  0.87821084  0.59935007  0.39484035     0.37430
H642        H  0.98006341  0.64269716  0.41652563     0.33910
H643        H  0.96618686  0.57013845  0.06065309     0.25700
H644        H  0.97218415  0.70604203  0.48292664     0.31630
H645        H  0.94006018  0.68706807  0.36626307     0.37540
H646        H  0.93273561  0.51669823  0.02775770     0.32000
H647        H  0.90827535  0.49645478  0.43140665     0.30880
H648        H  0.88269246  0.51186385  0.38687788     0.32560
H649        H  0.90549283  0.63729314  0.33157154     0.31530
H650        H  0.89369805  0.57529524  0.03864782     0.35530
H651        H  0.84702963  0.60044169  0.00141930     0.28260
H652        H  0.03821000  0.56440237  0.42351098     0.32490
H653        H  0.95571914  0.64513427  0.33617468     0.35340
H654        H  0.93082671  0.50078379  0.40688798     0.27950
H655        H  0.85777508  0.62930024  0.01335173     0.40830
H656        H  0.99317488  0.64769400  0.02435590     0.30880
H657        H  0.98106467  0.59358309  0.04272034     0.38500
H658        H  0.88471214  0.61916805  0.34914568     0.30350
H659        H  0.96437412  0.70192737  0.44832801     0.30410
H660        H  0.02435809  0.56837107  0.39116839     0.30680
Zr661      Zr  0.78142580  0.71246925  0.37311408     2.17510
O662        O  0.77396325  0.67207304  0.40551312    -0.51680
O663        O  0.78928933  0.73394396  0.42203365    -0.74880
O664        O  0.82229345  0.68589604  0.38692524    -0.81670
O665        O  0.70047903  0.72630696  0.36761860    -0.83410
O666        O  0.85649153  0.70421699  0.35876603    -0.79040
O667        O  0.73444107  0.69724386  0.38300000    -0.90670
O668        O  0.79692015  0.78064899  0.41997028    -0.76640
O669        O  0.81435122  0.74901987  0.36760700    -0.86130
O670        O  0.75550714  0.75452230  0.37220734    -0.85820
O671        O  0.80621502  0.70141739  0.32739586    -0.72570
O672        O  0.75031579  0.70653298  0.33097311    -0.84710
Zr673      Zr  0.78026706  0.77430652  0.27767329     2.26420
Zr674      Zr  0.83829514  0.73967426  0.32088092     2.06270
Zr675      Zr  0.72491550  0.74981633  0.32874273     2.10050
Zr676      Zr  0.78823127  0.79095452  0.36645955     1.78760
O677        O  0.68831299  0.72118183  0.30641447    -0.93510
O678        O  0.83088001  0.81499438  0.37966754    -0.41320
O679        O  0.75730056  0.78659923  0.32346310    -0.77950
O680        O  0.81164215  0.78163928  0.31972715    -0.96640
O681        O  0.80708931  0.73297524  0.27924423    -0.89940
O682        O  0.74817502  0.73775098  0.28295262    -0.92790
C683        C  0.79540112  0.75755683  0.43438709     1.00970
C684        C  0.70905258  0.70453999  0.38101846     1.13900
C685        C  0.84747173  0.68722446  0.37950264     1.04680
O686        O  0.87696581  0.76388747  0.34500705    -0.94940
O687        O  0.85440994  0.77395204  0.27935751    -0.90680
O688        O  0.81933006  0.79127732  0.25046027    -0.83830
C689        C  0.84485126  0.78948925  0.25693281     1.11320
O690        O  0.76575844  0.64958209  0.30530132    -0.96910
Zr691      Zr  0.77493875  0.69607616  0.28539997     1.88940
O692        O  0.78171138  0.75208819  0.22809914    -0.73560
O693        O  0.86971870  0.71107724  0.29131968    -0.52820
O694        O  0.81098436  0.66417673  0.26933185    -0.97500
O695        O  0.73510541  0.67549316  0.25942796    -0.54720
O696        O  0.78071990  0.70457551  0.23148324    -0.74080
C697        C  0.78278518  0.72725448  0.21643807     0.98260
O698        O  0.77891582  0.82473032  0.27355095    -0.62900
O699        O  0.69725105  0.78556425  0.35371039    -0.57700
O700        O  0.73589328  0.78913058  0.25894366    -0.94390
O701        O  0.70159803  0.77907346  0.29133408    -0.92810
O702        O  0.75301693  0.81566068  0.39477173    -0.93170
O703        O  0.78529225  0.84038914  0.35342216    -0.91950
C704        C  0.71096566  0.79092145  0.26767246     1.17110
H705        H  0.74547780  0.75707144  0.39082144     0.33050
H706        H  0.82319521  0.79761555  0.31601712     0.43900
H707        H  0.73563485  0.73660747  0.26578317     0.37430
H708        H  0.81569381  0.68377646  0.32918203     0.33910
H709        H  0.82657759  0.82669033  0.39779942     0.25700
H710        H  0.88728710  0.71241254  0.30274541     0.31630
H711        H  0.80367072  0.65483094  0.25061575     0.37540
H712        H  0.76310219  0.82661097  0.41067868     0.32000
H713        H  0.67830567  0.77830982  0.35216720     0.30880
H714        H  0.67134319  0.73145944  0.31132435     0.32560
H715        H  0.74272040  0.66174474  0.24472087     0.31530
H716        H  0.80169920  0.84423485  0.34126864     0.35530
H717        H  0.76128702  0.83024410  0.28259694     0.28260
H718        H  0.78401748  0.67605231  0.42486191     0.32490
H719        H  0.76696279  0.63642732  0.28770168     0.35340
H720        H  0.70211797  0.78439802  0.37562243     0.27950
H721        H  0.79239858  0.83091257  0.28924562     0.40830
H722        H  0.87515120  0.76020385  0.36701223     0.30880
H723        H  0.84302250  0.80011914  0.38757519     0.38500
H724        H  0.72750142  0.69050824  0.24652956     0.30350
H725        H  0.86349538  0.69155960  0.29431209     0.30410
H726        H  0.78352085  0.65593862  0.39605625     0.30680
Zr727      Zr  0.80370227  0.77101435  0.12511283     2.17510
O728        O  0.81195741  0.80839983  0.16304621    -0.51680
O729        O  0.79434013  0.74946212  0.17239267    -0.74880
O730        O  0.76369693  0.79956622  0.13673243    -0.81670
O731        O  0.88521467  0.75543086  0.12096849    -0.83410
O732        O  0.72899410  0.78296194  0.10632251    -0.79040
O733        O  0.85147658  0.78455450  0.13621180    -0.90670
O734        O  0.78639526  0.70285790  0.16849918    -0.76640
O735        O  0.76995319  0.73534929  0.11687108    -0.86130
O736        O  0.82834505  0.72825809  0.12345887    -0.85820
O737        O  0.77963617  0.78303222  0.07866409    -0.72570
O738        O  0.83463920  0.77650384  0.08402920    -0.84710
Zr739      Zr  0.80293967  0.70849710  0.02653885     2.26420
Zr740      Zr  0.74655857  0.74581705  0.06967846     2.06270
Zr741      Zr  0.85878152  0.73255454  0.08123061     2.10050
Zr742      Zr  0.79486593  0.69262587  0.11482744     1.78760
O743        O  0.89541474  0.76156735  0.06180452    -0.93510
O744        O  0.75208312  0.66889626  0.12565000    -0.41320
O745        O  0.82579038  0.69597752  0.07294685    -0.77950
O746        O  0.77164397  0.70251051  0.06767009    -0.96640
O747        O  0.77761598  0.75099236  0.02880129    -0.89940
O748        O  0.83578697  0.74454500  0.03462132    -0.92790
C749        C  0.78798879  0.72599174  0.18371089     1.00970
C750        C  0.87695930  0.77754389  0.13439503     1.13900
C751        C  0.73864750  0.79969103  0.12779218     1.04680
O752        O  0.70736675  0.72339159  0.09261888    -0.94940
O753        O  0.72840915  0.71269972  0.02736375    -0.90680
O754        O  0.76210721  0.69197375  0.99984042    -0.83830
C755        C  0.73683775  0.69580742  0.00548390     1.11320
O756        O  0.82172813  0.83378477  0.05781089    -0.96910
Zr757      Zr  0.81055505  0.78715947  0.03748847     1.88940
O758        O  0.80112124  0.73182813  0.47834582    -0.73560
O759        O  0.71608834  0.77482891  0.03925166    -0.52820
O760        O  0.77496859  0.82001687  0.52220199    -0.97500
O761        O  0.85106949  0.80575567  0.51312036    -0.54720
O762        O  0.80364220  0.77922791  0.48305370    -0.74080
C763        C  0.80066359  0.75654424  0.46730641     0.98260
O764        O  0.80564016  0.65985346  0.00878002    -0.62900
O765        O  0.88531908  0.69560656  0.10529994    -0.57700
O766        O  0.84772494  0.69320954  0.01042929    -0.94390
O767        O  0.88244228  0.70555875  0.04283023    -0.92810
O768        O  0.82997472  0.66697278  0.14264062    -0.93170
O769        O  0.79518111  0.64331603  0.09953692    -0.91950
C770        C  0.87307988  0.69350722  0.01865629     1.17110
H771        H  0.83836478  0.72537093  0.14228046     0.33050
H772        H  0.75953283  0.68692929  0.06318253     0.43900
H773        H  0.84840697  0.74551821  0.01800358     0.37430
H774        H  0.77083416  0.80105500  0.08044952     0.33910
H775        H  0.75600254  0.65797344  0.14420158     0.25700
H776        H  0.69840130  0.77412616  0.04984868     0.31630
H777        H  0.78198688  0.82898345  0.50369793     0.37540
H778        H  0.81990385  0.65634739  0.15808714     0.32000
H779        H  0.90454731  0.70189120  0.10396823     0.30880
H780        H  0.91238124  0.75097915  0.06614018     0.32560
H781        H  0.84401255  0.82011435  0.49899284     0.31530
H782        H  0.79422348  0.64346811  0.07700012     0.35530
H783        H  0.78979802  0.65006134  0.01751739     0.28260
H784        H  0.80325526  0.80217677  0.18199072     0.32490
H785        H  0.82026736  0.84665887  0.04039832     0.35340
H786        H  0.88111245  0.69721169  0.12723726     0.27950
H787        H  0.80197792  0.66010473  0.98653207     0.40830
H788        H  0.70967324  0.72718873  0.11474815     0.30880
H789        H  0.73972297  0.68403825  0.13256769     0.38500
H790        H  0.85764853  0.79052320  0.49955320     0.30350
H791        H  0.72277292  0.79422863  0.04285312     0.30410
H792        H  0.80131453  0.82503844  0.15689457     0.30680
Zr793      Zr  0.60819069  0.41900334  0.07917363     2.17510
O794        O  0.60876208  0.45194244  0.03730409    -0.51680
O795        O  0.57155793  0.43873419  0.10988201    -0.74880
O796        O  0.56932481  0.41110890  0.04492853    -0.81670
O797        O  0.66783156  0.46027873  0.10085177    -0.83410
O798        O  0.56076846  0.37458512  0.07212360    -0.79040
O799        O  0.62212654  0.46036699  0.10430047    -0.90670
O800        O  0.58364370  0.42722584  0.15796627    -0.76640
O801        O  0.58804925  0.38242551  0.10731569    -0.86130
O802        O  0.63534713  0.41821795  0.12573423    -0.85820
O803        O  0.61578682  0.37715216  0.04897924    -0.72570
O804        O  0.65562790  0.41270192  0.06513039    -0.84710
Zr805      Zr  0.66824128  0.33089581  0.10655447     2.26420
Zr806      Zr  0.59636250  0.34043406  0.07831788     2.06270
Zr807      Zr  0.68190600  0.41053458  0.11192060     2.10050
Zr808      Zr  0.61392414  0.38376194  0.15325325     1.78760
O809        O  0.72069556  0.43305107  0.08829380    -0.93510
O810        O  0.57138894  0.36297322  0.17019561    -0.41320
O811        O  0.66047761  0.37275820  0.13809529    -0.77950
O812        O  0.62271598  0.34096677  0.12479104    -0.96640
O813        O  0.64208588  0.33292191  0.06126959    -0.89940
O814        O  0.68817699  0.36913491  0.08027491    -0.92790
C815        C  0.56978490  0.44252126  0.13880622     1.00970
C816        C  0.64435812  0.47310932  0.10103334     1.13900
C817        C  0.55859069  0.38687304  0.04679398     1.04680
O818        O  0.55499016  0.31330248  0.08509255    -0.94940
O819        O  0.60153966  0.29877909  0.10658216    -0.90680
O820        O  0.64475560  0.28644404  0.10029479    -0.83830
C821        C  0.61919782  0.28159532  0.09727919     1.11320
O822        O  0.64654519  0.39686419  0.49017422    -0.96910
Zr823      Zr  0.66210454  0.37090406  0.03450718     1.88940
O824        O  0.70412819  0.31369287  0.06734464    -0.73560
O825        O  0.59369932  0.31392244  0.03041672    -0.52820
O826        O  0.64637252  0.33797494  0.99489169    -0.97500
O827        O  0.69809659  0.39997424  0.01380094    -0.54720
O828        O  0.69953935  0.33872456  0.02391116    -0.74080
C829        C  0.71088322  0.31900113  0.03897049     0.98260
O830        O  0.67690391  0.29434949  0.14341728    -0.62900
O831        O  0.69501070  0.43123554  0.16105736    -0.57700
O832        O  0.69381544  0.34959729  0.14755078    -0.94390
O833        O  0.72162519  0.38052785  0.12896174    -0.92810
O834        O  0.63385610  0.40926085  0.19672602    -0.93170
O835        O  0.62065875  0.35632861  0.19905738    -0.91950
C836        C  0.71769586  0.35663231  0.14155343     1.17110
H837        H  0.63535425  0.43317343  0.14087683     0.33050
H838        H  0.61884938  0.32761742  0.14047930     0.43900
H839        H  0.70729610  0.36641850  0.07607866     0.37430
H840        H  0.60661934  0.37800110  0.02956957     0.33910
H841        H  0.56542353  0.37543066  0.18707446     0.25700
H842        H  0.57617023  0.30359584  0.03063302     0.31630
H843        H  0.66140911  0.33681440  0.48011635     0.37540
H844        H  0.61804809  0.41741405  0.20749648     0.32000
H845        H  0.71489286  0.43468033  0.15960278     0.30880
H846        H  0.72656132  0.44782462  0.10310260     0.32560
H847        H  0.70549119  0.38885325  0.99657588     0.31530
H848        H  0.63785623  0.34594617  0.19554864     0.35530
H849        H  0.68602780  0.30337030  0.16124026     0.28260
H850        H  0.62065958  0.46764909  0.04403468     0.32490
H851        H  0.65669099  0.38898646  0.47269578     0.35340
H852        H  0.68675369  0.45017437  0.16099573     0.27950
H853        H  0.65888587  0.28951271  0.15188936     0.40830
H854        H  0.54823736  0.31952634  0.10524105     0.30880
H855        H  0.55797959  0.36636588  0.15355218     0.38500
H856        H  0.71284213  0.39985503  0.02948967     0.29150
H857        H  0.59173097  0.32785072  0.01413007     0.30410
H858        H  0.61987051  0.44218653  0.02180525     0.30680
Zr859      Zr  0.62945760  0.05697011  0.08227098     2.17510
O860        O  0.63328126  0.02125897  0.12095227    -0.51680
O861        O  0.59463687  0.03239676  0.05240948    -0.74880
O862        O  0.59144576  0.06133001  0.11793580    -0.81670
O863        O  0.69349245  0.02888239  0.03970077    -0.83410
O864        O  0.57766005  0.09542007  0.08965500    -0.79040
O865        O  0.65347530  0.01706212  0.06231658    -0.90670
O866        O  0.58981956  0.05585390  0.50808076    -0.76640
O867        O  0.60214066  0.09224387  0.05886173    -0.86130
O868        O  0.64970542  0.06415115  0.03373552    -0.85820
O869        O  0.63410377  0.09787556  0.11522059    -0.72570
O870        O  0.67671236  0.07037557  0.09095776    -0.84710
Zr871      Zr  0.67328609  0.15590144  0.05674540     2.26420
Zr872      Zr  0.60834154  0.13401184  0.08994983     2.06270
Zr873      Zr  0.69607097  0.08013472  0.04195342     2.10050
Zr874      Zr  0.62209854  0.09734807  0.51066688     1.78760
O875        O  0.73868841  0.06282214  0.06383493    -0.93510
O876        O  0.57877027  0.11950399  0.49751521    -0.41320
O877        O  0.66798063  0.11599601  0.02110441    -0.77950
O878        O  0.62864213  0.13882718  0.04152241    -0.96640
O879        O  0.65379165  0.14778396  0.10411696    -0.89940
O880        O  0.70057946  0.11927232  0.07708056    -0.92790
C881        C  0.58336649  0.03561989  0.02614763     1.00970
C882        C  0.67570471  0.01092813  0.04853980     1.13900
C883        C  0.57632714  0.08286861  0.11464680     1.04680
O884        O  0.56722000  0.16231823  0.09558664    -0.94940
O885        O  0.59743503  0.17584437  0.06298983    -0.90680
O886        O  0.63810947  0.19167706  0.04708062    -0.83830
C887        C  0.61192010  0.19374926  0.04940154     1.11320
O888        O  0.67405955  0.07619833  0.16505826    -0.96910
Zr889      Zr  0.68072368  0.11026185  0.12496496     1.88940
O890        O  0.70580117  0.17730614  0.09731279    -0.73560
O891        O  0.60783857  0.15187384  0.14249648    -0.52820
O892        O  0.66628572  0.13428131  0.17139094    -0.97500
O893        O  0.72373635  0.08717047  0.13761555    -0.54720
O894        O  0.71312646  0.14781720  0.13654470    -0.74080
C895        C  0.71756934  0.17108067  0.12334938     0.98260
O896        O  0.69284516  0.20018491  0.54201224    -0.62900
O897        O  0.70789874  0.06719642  0.48991573    -0.57700
O898        O  0.69691989  0.14658351  0.51113266    -0.94390
O899        O  0.72870761  0.11507776  0.02196006    -0.92810
O900        O  0.63913570  0.07136383  0.46668140    -0.93170
O901        O  0.62274986  0.12402009  0.46385257    -0.91950
C902        C  0.72166407  0.13925822  0.51193452     1.17110
H903        H  0.64854580  0.04808213  0.02013833     0.33050
H904        H  0.62011498  0.15021950  0.52626511     0.43900
H905        H  0.71947127  0.12487489  0.07948391     0.37430
H906        H  0.62667709  0.09426247  0.13494862     0.33910
H907        H  0.56857050  0.10510483  0.48544504     0.25700
H908        H  0.58901813  0.15811903  0.14669825     0.31630
H909        H  0.68275011  0.13500657  0.18477434     0.37540
H910        H  0.62290019  0.06162089  0.45787134     0.32000
H911        H  0.72425271  0.05515765  0.49205240     0.30880
H912        H  0.74869086  0.05489179  0.04627886     0.32560
H913        H  0.73051271  0.09684430  0.15638439     0.31530
H914        H  0.63667911  0.13878102  0.46776427     0.35530
H915        H  0.68097988  0.20569040  0.52478914     0.28260
H916        H  0.61465558  0.01349024  0.12309622     0.32490
H917        H  0.68636548  0.08211896  0.18208730     0.35340
H918        H  0.69320476  0.05421400  0.48293213     0.27950
H919        H  0.68829641  0.21349402  0.55867583     0.40830
H920        H  0.55533171  0.15776001  0.07769116     0.30880
H921        H  0.56890724  0.12092604  0.51699522     0.38500
H922        H  0.73651133  0.09302048  0.12165340     0.30350
H923        H  0.61074005  0.13560298  0.15579441     0.30410
H924        H  0.63705076  0.03169593  0.14021752     0.30680
Zr925      Zr  0.94556046  0.05492040  0.31342790     2.17510
O926        O  0.95764040  0.01574431  0.28084691    -0.51680
O927        O  0.97746105  0.03041593  0.34601963    -0.74880
O928        O  0.98333376  0.05335792  0.27762418    -0.81670
O929        O  0.87044643  0.04265217  0.32355025    -0.83410
O930        O  0.99837604  0.08472439  0.30931789    -0.79040
O931        O  0.91122715  0.02093069  0.32671728    -0.90670
O932        O  0.98622237  0.05565682  0.38882535    -0.76640
O933        O  0.97526979  0.08795060  0.33789588    -0.86130
O934        O  0.92506959  0.06555737  0.36147037    -0.85820
O935        O  0.94495336  0.09379067  0.27863951    -0.72570
O936        O  0.90045047  0.07327418  0.30197608    -0.84710
Zr937      Zr  0.91057634  0.15844699  0.33450910     2.26420
Zr938      Zr  0.97361694  0.12740071  0.30520288     2.06270
Zr939      Zr  0.88100694  0.08662189  0.35048686     2.10050
Zr940      Zr  0.95521117  0.09840993  0.38481518     1.78760
O941        O  0.83215659  0.07695686  0.34717341    -0.93510
O942        O  0.99927133  0.11867018  0.39947291    -0.41320
O943        O  0.91177358  0.12084155  0.37163389    -0.77950
O944        O  0.95351185  0.13961951  0.35255567    -0.96640
O945        O  0.93043740  0.14560338  0.28849678    -0.89940
O946        O  0.88030474  0.12381882  0.31456560    -0.92790
C947        C  0.99015713  0.03360974  0.37151688     1.00970
C948        C  0.88585427  0.02122343  0.31937807     1.13900
C949        C  0.00109753  0.07199650  0.28421888     1.04680
O950        O  0.01923244  0.14743060  0.31012233    -0.94940
O951        O  0.98640769  0.17303017  0.31980647    -0.90680
O952        O  0.94415808  0.19061217  0.31484929    -0.83830
C953        C  0.97031668  0.19258225  0.31306774     1.11320
O954        O  0.90320836  0.07629769  0.22643847    -0.96910
Zr955      Zr  0.90005977  0.11137218  0.26714614     1.88940
O956        O  0.87713669  0.18062546  0.29713881    -0.73560
O957        O  0.98005657  0.14268139  0.25311676    -0.52820
O958        O  0.91898603  0.13439031  0.22303405    -0.97500
O959        O  0.85518449  0.09372730  0.25177880    -0.54720
O960        O  0.86965091  0.15097093  0.25701915    -0.74080
C961        C  0.86500215  0.17412427  0.27126791     0.98260
O962        O  0.91579349  0.20208671  0.36381848    -0.62900
O963        O  0.87800814  0.06276408  0.39898067    -0.57700
O964        O  0.87352877  0.16634166  0.36646245    -0.94390
O965        O  0.85328421  0.12445553  0.37555276    -0.92810
O966        O  0.93477319  0.07442167  0.42744641    -0.93170
O967        O  0.95410561  0.12559444  0.43217991    -0.91950
C968        C  0.85505027  0.15155509  0.37823047     1.17110
H969        H  0.92360443  0.04901825  0.37376631     0.33050
H970        H  0.96356179  0.15428078  0.36325855     0.43900
H971        H  0.86186454  0.13068762  0.31217393     0.37430
H972        H  0.95259499  0.08855317  0.25929515     0.33910
H973        H  0.00648859  0.10624444  0.41554621     0.25700
H974        H  0.99989621  0.14552428  0.25090995     0.31630
H975        H  0.90307292  0.13808864  0.20950024     0.37540
H976        H  0.94953401  0.06242211  0.43568578     0.32000
H977        H  0.86453486  0.07375807  0.41074953     0.30880
H978        H  0.82723177  0.07030923  0.36761716     0.32560
H979        H  0.85018323  0.10397288  0.23306745     0.31530
H980        H  0.94219774  0.14177197  0.42747628     0.35530
H981        H  0.89920132  0.21320900  0.35926978     0.28260
H982        H  0.95147854  0.99910658  0.29190381     0.32490
H983        H  0.89415369  0.08469285  0.20845309     0.35340
H984        H  0.86860349  0.04483870  0.39396214     0.27950
H985        H  0.91427352  0.19686160  0.38546050     0.40830
H986        H  0.02573740  0.14242668  0.33084351     0.30880
H987        H  0.01106838  0.11489987  0.38176456     0.38500
H988        H  0.84258218  0.10100949  0.26743444     0.30350
H989        H  0.97498998  0.12688056  0.23936971     0.30410
H990        H  0.94567486  0.01757010  0.26271034     0.30680
Zr991      Zr  0.95096070  0.43029011  0.35333228     2.17510
O992        O  0.95204635  0.45389184  0.40306253    -0.51680
O993        O  0.98326978  0.45361216  0.31848228    -0.74880
O994        O  0.99465825  0.42069577  0.37815276    -0.81670
O995        O  0.90264434  0.46885610  0.30724071    -0.83410
O996        O  0.98266477  0.38088692  0.40152212    -0.79040
O997        O  0.92244345  0.47008266  0.35327018    -0.90670
O998        O  0.98829052  0.42647921  0.27633552    -0.76640
O999        O  0.97269540  0.39006576  0.33319348    -0.86130
O1000       O  0.93262711  0.42566548  0.30244908    -0.85820
O1001       O  0.93655108  0.39408194  0.38648361    -0.72570
O1002       O  0.90177566  0.42582139  0.35598024    -0.84710
Zr1003     Zr  0.89494598  0.34105468  0.32365217     2.26420
Zr1004     Zr  0.95840709  0.35335962  0.36564048     2.06270
Zr1005     Zr  0.88358998  0.41903191  0.30532587     2.10050
Zr1006     Zr  0.95517257  0.38659073  0.28248771     1.78760
O1007       O  0.84311818  0.44247872  0.32464905    -0.93510
O1008       O  0.99917569  0.36495994  0.27222499    -0.41320
O1009       O  0.90670495  0.37778743  0.28799182    -0.77950
O1010       O  0.94302351  0.34789747  0.31463536    -0.96640
O1011       O  0.91086369  0.34810939  0.37348418    -0.89940
O1012       O  0.87105336  0.38210955  0.33970913    -0.92790
C1013       C  0.99425368  0.44871992  0.29249088     1.00970
C1014       C  0.91781127  0.48140765  0.32801891     1.13900
C1015       C  0.99910638  0.40064849  0.39660982     1.04680
O1016       O  0.00138302  0.33916408  0.34331261    -0.94940
O1017       O  0.95213101  0.30358138  0.36135857    -0.90680
O1018       O  0.92348989  0.30022173  0.32122091    -0.83830
C1019       C  0.94320879  0.29088315  0.33752314     1.11320
O1020       O  0.89284378  0.42464004  0.43127301    -0.96910
Zr1021     Zr  0.88832496  0.38993412  0.39010330     1.88940
O1022       O  0.86146482  0.32439759  0.36157469    -0.73560
O1023       O  0.97223237  0.32614481  0.40984107    -0.52820
O1024       O  0.90089995  0.36644045  0.43723609    -0.97500
O1025       O  0.84677668  0.41706561  0.39776226    -0.54720
O1026       O  0.85331904  0.35576138  0.39945505    -0.74080
C1027       C  0.84939814  0.33203792  0.38637740     0.98260
O1028       O  0.87041874  0.29788473  0.31198436    -0.62900
O1029       O  0.87181948  0.43753007  0.25549345    -0.57700
O1030       O  0.87806518  0.34756516  0.27386464    -0.94390
O1031       O  0.85065574  0.38452182  0.27826196    -0.92810
O1032       O  0.93922246  0.40814057  0.23553464    -0.93170
O1033       O  0.95331416  0.35263660  0.24047593    -0.91950
C1034       C  0.85506707  0.35868055  0.26950682     1.17110
H1035       H  0.93756115  0.44104042  0.28959552     0.33050
H1036       H  0.95232874  0.33278370  0.30432668     0.43900
H1037       H  0.85154727  0.37898358  0.33951566     0.37430
H1038       H  0.94140606  0.39876306  0.40733892     0.33910
H1039       H  0.00573594  0.37433781  0.25374626     0.25700
H1040       H  0.99199079  0.32983110  0.41303778     0.31630
H1041       H  0.88376126  0.36490510  0.44877015     0.37540
H1042       H  0.95606721  0.41414474  0.22527002     0.32000
H1043       H  0.86042433  0.45418922  0.25995016     0.30880
H1044       H  0.82818194  0.42869839  0.32124906     0.32560
H1045       H  0.83818311  0.40882548  0.41582972     0.31530
H1046       H  0.93604118  0.34224846  0.24337137     0.35530
H1047       H  0.85076327  0.30262943  0.31143718     0.28260
H1048       H  0.96321797  0.44213376  0.41666473     0.32490
H1049       H  0.88120892  0.41783463  0.44786132     0.35340
H1050       H  0.88916672  0.44532571  0.24796835     0.27950
H1051       H  0.87532770  0.29366960  0.29073555     0.40830
H1052       H  0.99649725  0.32739975  0.32527057     0.30880
H1053       H  0.01142605  0.37203655  0.28878663     0.38500
H1054       H  0.83451700  0.41155089  0.38054667     0.30350
H1055       H  0.96328995  0.33538126  0.42740108     0.30410
H1056       H  0.93329163  0.45156663  0.41063817     0.30680
Zr1057     Zr  0.74897577  0.23415209  0.49580313     2.17510
O1058       O  0.70090158  0.23793523  0.48183060    -0.51680
O1059       O  0.76152647  0.23787480  0.04874185    -0.74880
O1060       O  0.73498842  0.18613568  0.00754695    -0.81670
O1061       O  0.74577047  0.31110293  0.49885200    -0.83410
O1062       O  0.75989523  0.15247571  0.48313764    -0.79040
O1063       O  0.72995719  0.27370294  0.02507003    -0.90670
O1064       O  0.80785848  0.24325251  0.04919620    -0.76640
O1065       O  0.78914430  0.20600123  0.49647698    -0.86130
O1066       O  0.78626524  0.26622178  0.99910805    -0.85820
O1067       O  0.74780887  0.20694374  0.44950889    -0.72570
O1068       O  0.74415136  0.26427152  0.45298794    -0.84710
Zr1069     Zr  0.82139974  0.24085120  0.41125933     2.26420
Zr1070     Zr  0.78851438  0.17927108  0.44992012     2.06270
Zr1071     Zr  0.78105605  0.29681621  0.45800548     2.10050
Zr1072     Zr  0.82632243  0.23819088  0.99931073     1.78760
O1073       O  0.75244931  0.33037183  0.43121204    -0.93510
O1074       O  0.84564791  0.19810362  0.02575110    -0.41320
O1075       O  0.82230309  0.26891567  0.45718512    -0.77950
O1076       O  0.82674364  0.21068263  0.45359888    -0.96640
O1077       O  0.78475743  0.20860455  0.40622865    -0.89940
O1078       O  0.78132845  0.26950848  0.41167710    -0.92790
C1079       C  0.78455081  0.24318808  0.06192850     1.00970
C1080       C  0.73080596  0.30031007  0.02046159     1.13900
C1081       C  0.74080244  0.16033848  0.00086844     1.04680
O1082       O  0.81683035  0.14529884  0.47656327    -0.94940
O1083       O  0.81969829  0.15727495  0.41471220    -0.90680
O1084       O  0.83781361  0.19551172  0.39222965    -0.83830
C1085       C  0.83580155  0.16875854  0.39596458     1.11320
O1086       O  0.69616585  0.22859329  0.41196350    -0.96910
Zr1087     Zr  0.74498122  0.23702572  0.40633370     1.88940
O1088       O  0.81030578  0.24575118  0.35831690    -0.73560
O1089       O  0.76225160  0.14653062  0.41780886    -0.52820
O1090       O  0.73076130  0.19674044  0.37500949    -0.97500
O1091       O  0.71693029  0.27483353  0.38621072    -0.54720
O1092       O  0.76389635  0.24651265  0.35653165    -0.74080
C1093       C  0.78749239  0.24862376  0.34426342     0.98260
O1094       O  0.87101448  0.24322768  0.40784691    -0.62900
O1095       O  0.80404083  0.33375895  0.48756544    -0.57700
O1096       O  0.83649859  0.28562044  0.39402366    -0.94390
O1097       O  0.81498815  0.31890747  0.42299936    -0.92810
O1098       O  0.85125199  0.27624207  0.02493587    -0.93170
O1099       O  0.87539360  0.23951938  0.99070898    -0.91950
C1100       C  0.83201530  0.31111439  0.40193334     1.17110
H1101       H  0.78559980  0.27796020  0.01717349     0.33050
H1102       H  0.84366406  0.20037721  0.45240016     0.43900
H1103       H  0.78104518  0.28230442  0.39486229     0.37430
H1104       H  0.73200451  0.19478935  0.44897679     0.33910
H1105       H  0.85630742  0.20645740  0.04298311     0.25700
H1106       H  0.76712441  0.12774541  0.42547585     0.31630
H1107       H  0.74710464  0.19138908  0.36327330     0.37540
H1108       H  0.85834193  0.26805061  0.04407506     0.32000
H1109       H  0.78998997  0.34845806  0.49028019     0.30880
H1110       H  0.76225848  0.34845613  0.43372826     0.32560
H1111       H  0.71303849  0.26931700  0.36473619     0.31530
H1112       H  0.88036375  0.22021940  0.48422507     0.35530
H1113       H  0.87656267  0.25818988  0.42258753     0.28260
H1114       H  0.69131714  0.24451426  0.00010318     0.32490
H1115       H  0.68848622  0.22699396  0.39100575     0.35340
H1116       H  0.80673703  0.32583980  0.00804476     0.27950
H1117       H  0.87773634  0.22576767  0.41725988     0.40830
H1118       H  0.83459522  0.15486124  0.98001960     0.30880
H1119       H  0.82990715  0.18895050  0.03543440     0.38500
H1120       H  0.72951915  0.29102252  0.38491354     0.30350
H1121       H  0.74297863  0.14921480  0.42367470     0.30410
H1122       H  0.69458352  0.21847100  0.47794942     0.30680
Zr1123     Zr  0.75012905  0.26129073  0.15841741     2.17510
O1124       O  0.70172181  0.25083314  0.16394578    -0.51680
O1125       O  0.76195207  0.25661957  0.10606650    -0.74880
O1126       O  0.73349817  0.30941686  0.14506395    -0.81670
O1127       O  0.75244455  0.18386173  0.16266391    -0.83410
O1128       O  0.75869979  0.34488553  0.16695990    -0.79040
O1129       O  0.73376808  0.21814567  0.13306030    -0.90670
O1130       O  0.80827222  0.25183860  0.10692866    -0.76640
O1131       O  0.78853315  0.29196648  0.15723700    -0.86130
O1132       O  0.78942083  0.23145281  0.15796454    -0.85820
O1133       O  0.74764880  0.29002661  0.20340931    -0.72570
O1134       O  0.74885982  0.23221085  0.20248376    -0.84710
Zr1135     Zr  0.82491955  0.26337700  0.24618393     2.26420
Zr1136     Zr  0.78700542  0.32021631  0.20286798     2.06270
Zr1137     Zr  0.78846975  0.20261379  0.20126158     2.10050
Zr1138     Zr  0.82744228  0.26215869  0.15663700     1.78760
O1139       O  0.76451432  0.16800253  0.23109101    -0.93510
O1140       O  0.84226062  0.30133164  0.12592882    -0.41320
O1141       O  0.82686178  0.23404395  0.20115323    -0.77950
O1142       O  0.82672000  0.29118551  0.20146595    -0.96640
O1143       O  0.78564426  0.29241969  0.24784473    -0.89940
O1144       O  0.78683516  0.23178864  0.24588849    -0.92790
C1145       C  0.78477855  0.25098161  0.09365281     1.00970
C1146       C  0.73616728  0.19221483  0.14043969     1.13900
C1147       C  0.73884334  0.33590552  0.15038731     1.04680
O1148       O  0.81576931  0.35323232  0.17627889    -0.94940
O1149       O  0.81608258  0.34805972  0.23696190    -0.90680
O1150       O  0.83914925  0.31245765  0.25916585    -0.83830
C1151       C  0.83485694  0.33897463  0.25471387     1.11320
O1152       O  0.69845428  0.26843516  0.24253517    -0.96910
Zr1153     Zr  0.74761041  0.26105639  0.24739865     1.88940
O1154       O  0.81119048  0.25881830  0.29904958    -0.73560
O1155       O  0.75794769  0.35193980  0.23193279    -0.52820
O1156       O  0.72887501  0.29819906  0.27948206    -0.97500
O1157       O  0.72381468  0.21914666  0.26402779    -0.54720
O1158       O  0.76481367  0.25468969  0.29816772    -0.74080
C1159       C  0.78805158  0.25459960  0.31181644     0.98260
O1160       O  0.87457436  0.26460189  0.24377795    -0.62900
O1161       O  0.81226644  0.16628243  0.17252020    -0.57700
O1162       O  0.84667245  0.22048655  0.26463403    -0.94390
O1163       O  0.82739243  0.18527572  0.23552588    -0.92810
O1164       O  0.85512988  0.22379175  0.13692741    -0.93170
O1165       O  0.87679217  0.26749338  0.16259862    -0.91950
C1166       C  0.84489065  0.19448718  0.25634602     1.17110
H1167       H  0.78912014  0.21865141  0.14073146     0.33050
H1168       H  0.84283121  0.30289485  0.20184289     0.43900
H1169       H  0.78767085  0.21959619  0.26321718     0.37430
H1170       H  0.73107731  0.30098268  0.20311205     0.33910
H1171       H  0.85387236  0.29266738  0.11010396     0.25700
H1172       H  0.76206589  0.37082205  0.22412119     0.31630
H1173       H  0.74270683  0.31336202  0.27942407     0.37540
H1174       H  0.84228285  0.20783248  0.13447235     0.32000
H1175       H  0.80321591  0.14858366  0.17822397     0.30880
H1176       H  0.77714975  0.15183968  0.23205172     0.32560
H1177       H  0.71485989  0.22497490  0.28317327     0.31530
H1178       H  0.87974220  0.28705512  0.16981088     0.35530
H1179       H  0.87927396  0.25020682  0.22822770     0.28260
H1180       H  0.69684041  0.26142992  0.18258923     0.32490
H1181       H  0.69077652  0.25051363  0.23454239     0.35340
H1182       H  0.80661076  0.16908369  0.15103796     0.27950
H1183       H  0.87912192  0.28260058  0.23413319     0.40830
H1184       H  0.81470401  0.34712520  0.15464007     0.30880
H1185       H  0.82566127  0.30736685  0.11466752     0.38500
H1186       H  0.73844751  0.20619375  0.27063166     0.30350
H1187       H  0.73906705  0.34796318  0.22467803     0.30410
H1188       H  0.70028765  0.23111785  0.17046196     0.30680
Zr1189     Zr  0.47870666  0.08219472  0.19580402     2.17510
O1190       O  0.50908971  0.06552809  0.15663860    -0.51680
O1191       O  0.50547091  0.04948653  0.22480260    -0.74880
O1192       O  0.51000534  0.11364531  0.22237533    -0.81670
O1193       O  0.41894683  0.06441559  0.15150800    -0.83410
O1194       O  0.50432148  0.15783619  0.21078865    -0.79040
O1195       O  0.46296957  0.05262524  0.15156820    -0.90670
O1196       O  0.48663392  0.04756663  0.27155831    -0.76640
O1197       O  0.47607835  0.10929167  0.24183857    -0.86130
O1198       O  0.44893245  0.05393633  0.22477708    -0.85820
O1199       O  0.46498930  0.12946897  0.18162896    -0.72570
O1200       O  0.43353791  0.09303371  0.18898591    -0.84710
Zr1201     Zr  0.38497560  0.12775966  0.22605638     2.26420
Zr1202     Zr  0.45754993  0.15548580  0.22981962     2.06270
Zr1203     Zr  0.40447656  0.05665085  0.20164743     2.10050
Zr1204     Zr  0.44675281  0.08100393  0.27077535     1.78760
O1205       O  0.37253193  0.02557410  0.17460244    -0.93510
O1206       O  0.47883845  0.10151882  0.30801002    -0.41320
O1207       O  0.40125177  0.08329474  0.24658971    -0.77950
O1208       O  0.42737801  0.12612484  0.25726418    -0.96640
O1209       O  0.41646206  0.15566994  0.19884406    -0.89940
O1210       O  0.38989693  0.10090945  0.18097420    -0.92790
C1211       C  0.50454995  0.03967661  0.25169758     1.00970
C1212       C  0.43868164  0.05145529  0.13992142     1.13900
C1213       C  0.51872787  0.13550620  0.20971293     1.04680
O1214       O  0.47628527  0.16473822  0.28072048    -0.94940
O1215       O  0.42035471  0.18996060  0.24506720    -0.90680
O1216       O  0.39041550  0.16041951  0.26472914    -0.83830
C1217       C  0.39750324  0.18469202  0.25850943     1.11320
O1218       O  0.45582927  0.11513173  0.11587223    -0.96910
Zr1219     Zr  0.42273692  0.12849681  0.15396736     1.88940
O1220       O  0.36242901  0.16186982  0.18823093    -0.73560
O1221       O  0.47140628  0.20364403  0.22015178    -0.52820
O1222       O  0.44072461  0.17409890  0.13974858    -0.97500
O1223       O  0.40120181  0.10658726  0.10915112    -0.54720
O1224       O  0.38590165  0.16059639  0.14401866    -0.74080
C1225       C  0.36609847  0.16961972  0.15994987     0.98260
O1226       O  0.34741135  0.12497754  0.26223175    -0.62900
O1227       O  0.41356327  0.01024576  0.22246972    -0.57700
O1228       O  0.34542568  0.10132949  0.21228659    -0.94390
O1229       O  0.36317083  0.06157580  0.22860174    -0.92810
O1230       O  0.42591710  0.04073294  0.29470573    -0.93170
O1231       O  0.42794224  0.09000394  0.32105668    -0.91950
C1232       C  0.34403910  0.07510391  0.21616968     1.17110
H1233       H  0.45555435  0.03508284  0.22699167     0.33050
H1234       H  0.42597380  0.13444769  0.27736258     0.43900
H1235       H  0.37342801  0.09974126  0.16877781     0.37430
H1236       H  0.47807921  0.13792798  0.16854659     0.33910
H1237       H  0.48291647  0.08620857  0.32235521     0.25700
H1238       H  0.48861037  0.20656671  0.23195288     0.31630
H1239       H  0.43390775  0.17698973  0.11868148     0.37540
H1240       H  0.44133536  0.03081968  0.30462383     0.32000
H1241       H  0.41669168  0.01344193  0.24455875     0.30880
H1242       H  0.36061591  0.01756973  0.19027203     0.32560
H1243       H  0.40461081  0.11980546  0.09245520     0.31530
H1244       H  0.40934918  0.09732386  0.31695652     0.35530
H1245       H  0.35050652  0.10715782  0.27302831     0.28260
H1246       H  0.52736254  0.06584185  0.16640086     0.32490
H1247       H  0.45687794  0.13138485  0.10217998     0.35340
H1248       H  0.39579109  0.00032912  0.22165790     0.27950
H1249       H  0.34956925  0.13944885  0.27847582     0.40830
H1250       H  0.49599860  0.16048742  0.27902031     0.30880
H1251       H  0.49609080  0.10404789  0.29690145     0.38500
H1252       H  0.38136891  0.10833368  0.11272922     0.30350
H1253       H  0.47683471  0.20374792  0.19852508     0.30410
H1254       H  0.50877214  0.08016587  0.14108240     0.30680
Zr1255     Zr  0.10740225  0.07393908  0.20935905     2.17510
O1256       O  0.07334815  0.05278786  0.24091939    -0.51680
O1257       O  0.07918670  0.04084762  0.17954096    -0.74880
O1258       O  0.07872109  0.10976310  0.18697276    -0.81670
O1259       O  0.16353703  0.02353823  0.23904683    -0.83410
O1260       O  0.08151723  0.15301684  0.20305269    -0.79040
O1261       O  0.12912894  0.05092197  0.25552441    -0.90670
O1262       O  0.09110061  0.04816646  0.13054069    -0.76640
O1263       O  0.10798303  0.10501108  0.16683575    -0.86130
O1264       O  0.13385221  0.04880886  0.17360893    -0.85820
O1265       O  0.12232302  0.12120604  0.22530819    -0.72570
O1266       O  0.15171587  0.07574268  0.22901594    -0.84710
Zr1267     Zr  0.19811657  0.12264953  0.17702364     2.26420
Zr1268     Zr  0.12707849  0.15105096  0.18040029     2.06270
Zr1269     Zr  0.17843544  0.04891170  0.19542187     2.10050
Zr1270     Zr  0.13344697  0.07913630  0.13138490     1.78760
O1271       O  0.21505784  0.01739539  0.20977731    -0.93510
O1272       O  0.10074751  0.10296206  0.09833105    -0.41320
O1273       O  0.17923418  0.07966842  0.15405517    -0.77950
O1274       O  0.15495304  0.12344789  0.14744281    -0.96640
O1275       O  0.16887696  0.14862201  0.20921022    -0.89940
O1276       O  0.19430401  0.09267213  0.21891471    -0.92790
C1277       C  0.07576432  0.03645376  0.15076577     1.00970
C1278       C  0.14880448  0.03300137  0.26060166     1.13900
C1279       C  0.06866201  0.12973789  0.20237649     1.04680
O1280       O  0.10499143  0.16276222  0.13219694    -0.94940
O1281       O  0.16394639  0.18614827  0.16502957    -0.90680
O1282       O  0.19413771  0.15817577  0.14209010    -0.83830
C1283       C  0.18643612  0.18212705  0.15005360     1.11320
O1284       O  0.14074040  0.09964192  0.29477039    -0.96910
Zr1285     Zr  0.16502614  0.11911934  0.25185420     1.88940
O1286       O  0.22087507  0.15751310  0.21563263    -0.73560
O1287       O  0.11509476  0.19839076  0.19721865    -0.52820
O1288       O  0.14099667  0.15652518  0.27867641    -0.97500
O1289       O  0.19817824  0.10236335  0.28940806    -0.54720
O1290       O  0.19795007  0.15661396  0.26007439    -0.74080
C1291       C  0.21709839  0.16633335  0.24384090     0.98260
O1292       O  0.23558920  0.12103112  0.14054678    -0.62900
O1293       O  0.16848386  0.00768079  0.16334630    -0.57700
O1294       O  0.23748131  0.09468128  0.18585380    -0.94390
O1295       O  0.22107509  0.05287998  0.17053399    -0.92810
O1296       O  0.15183068  0.03864391  0.10421905    -0.93170
O1297       O  0.15062133  0.08878335  0.08084210    -0.91950
C1298       C  0.24004545  0.06850357  0.18085892     1.17110
H1299       H  0.12684276  0.03022864  0.16939053     0.33050
H1300       H  0.15629792  0.13328462  0.12848514     0.43900
H1301       H  0.21131624  0.09035075  0.22980189     0.37430
H1302       H  0.11001959  0.12886357  0.23998692     0.33910
H1303       H  0.09479926  0.08848633  0.08320434     0.25700
H1304       H  0.09755899  0.20266869  0.18675337     0.31630
H1305       H  0.15318326  0.16188243  0.29602755     0.37540
H1306       H  0.13814372  0.02361461  0.10691913     0.32000
H1307       H  0.18463370  0.00539878  0.15025028     0.30880
H1308       H  0.21594247  0.00266100  0.19369533     0.32560
H1309       H  0.19585799  0.11482508  0.30743236     0.31530
H1310       H  0.16918295  0.09650227  0.08461093     0.35530
H1311       H  0.23124687  0.10469924  0.12709269     0.28260
H1312       H  0.05576646  0.05681280  0.23070035     0.32490
H1313       H  0.14623622  0.11109919  0.31284728     0.35340
H1314       H  0.16918256  0.99158739  0.17730522     0.27950
H1315       H  0.23448934  0.13713995  0.12669809     0.40830
H1316       H  0.08529570  0.15957092  0.13563054     0.30880
H1317       H  0.08448148  0.10610625  0.11105272     0.38500
H1318       H  0.21625755  0.10766413  0.28149302     0.30350
H1319       H  0.11053348  0.19681484  0.21901821     0.30410
H1320       H  0.07400355  0.06403379  0.25990268     0.30680
Zr1321     Zr  0.47032852  0.39333869  0.46259092     2.17510
O1322       O  0.50093098  0.40625613  0.00405658    -0.51680
O1323       O  0.49516484  0.43072421  0.43806510    -0.74880
O1324       O  0.50867811  0.36619846  0.44383455    -0.81670
O1325       O  0.40574511  0.42705706  0.50653218    -0.83410
O1326       O  0.49847701  0.32020160  0.44289345    -0.79040
O1327       O  0.45108468  0.41631333  0.50899026    -0.90670
O1328       O  0.47965068  0.43296344  0.38964456    -0.76640
O1329       O  0.46891598  0.36978503  0.41451105    -0.86130
O1330       O  0.43973015  0.42202296  0.43442596    -0.85820
O1331       O  0.45937029  0.34459249  0.47163485    -0.72570
O1332       O  0.42714853  0.38727677  0.48117524    -0.84710
Zr1333     Zr  0.37918279  0.34421252  0.42490115     2.26420
Zr1334     Zr  0.45265670  0.32231328  0.42159876     2.06270
Zr1335     Zr  0.39543074  0.41576644  0.45563751     2.10050
Zr1336     Zr  0.43906483  0.39884450  0.38652425     1.78760
O1337       O  0.35964962  0.43977228  0.48385739    -0.93510
O1338       O  0.46982603  0.38276162  0.34680064    -0.41320
O1339       O  0.39422679  0.39091379  0.40919203    -0.77950
O1340       O  0.42092053  0.35163330  0.39490102    -0.96640
O1341       O  0.41250483  0.31788082  0.45199077    -0.89940
O1342       O  0.38434560  0.36914176  0.47132890    -0.92790
C1343       C  0.49640308  0.44130497  0.41143021     1.00970
C1344       C  0.42873809  0.42680838  0.52016561     1.13900
C1345       C  0.51479928  0.34059796  0.44882992     1.04680
O1346       O  0.46694834  0.31970406  0.36876159    -0.94940
O1347       O  0.41831369  0.28379609  0.41350053    -0.90680
O1348       O  0.39068346  0.31111569  0.38788690    -0.83830
C1349       C  0.39602758  0.28762390  0.39826293     1.11320
O1350       O  0.44392684  0.36186318  0.04238289    -0.96910
Zr1351     Zr  0.41794646  0.34245755  0.49912928     1.88940
O1352       O  0.35847485  0.30965614  0.46412670    -0.73560
O1353       O  0.47290161  0.27565897  0.41787198    -0.52820
O1354       O  0.44522991  0.30354255  0.01799121    -0.97500
O1355       O  0.38960804  0.35493846  0.04239752    -0.54720
O1356       O  0.38594944  0.30534588  0.50596276    -0.74080
C1357       C  0.36426646  0.29898923  0.49113338     0.98260
O1358       O  0.34327724  0.34289333  0.38541479    -0.62900
O1359       O  0.40068230  0.46376823  0.43817048    -0.57700
O1360       O  0.33640554  0.36665102  0.43311947    -0.94390
O1361       O  0.35725957  0.40573465  0.42261613    -0.92810
O1362       O  0.41631032  0.44188653  0.37129553    -0.93170
O1363       O  0.41902427  0.39601854  0.33543373    -0.91950
C1364       C  0.33682879  0.39318755  0.43321310     1.17110
H1365       H  0.44517541  0.44146289  0.43390749     0.33050
H1366       H  0.41909863  0.34489691  0.37410233     0.43900
H1367       H  0.36788220  0.36964638  0.48275228     0.37430
H1368       H  0.47307408  0.33617228  0.48456088     0.33910
H1369       H  0.47418386  0.39980789  0.33522157     0.25700
H1370       H  0.49058504  0.27802345  0.40756526     0.31630
H1371       H  0.43590131  0.29752103  0.03663960     0.37540
H1372       H  0.43104859  0.45371204  0.36313196     0.32000
H1373       H  0.38318606  0.46810832  0.42766442     0.30880
H1374       H  0.35517161  0.45674932  0.47213348     0.32560
H1375       H  0.39179893  0.33924253  0.05672253     0.31530
H1376       H  0.40106249  0.38689973  0.33818528     0.35530
H1377       H  0.34640516  0.35995849  0.37337211     0.28260
H1378       H  0.51896065  0.40507782  0.99452281     0.32490
H1379       H  0.44356217  0.34729872  0.05818233     0.35340
H1380       H  0.40071237  0.47553312  0.45695989     0.27950
H1381       H  0.34694407  0.32732450  0.37093367     0.40830
H1382       H  0.48693112  0.32292007  0.36980718     0.30880
H1383       H  0.48710453  0.37824636  0.35765570     0.38500
H1384       H  0.37052225  0.35326870  0.03488584     0.30350
H1385       H  0.47774132  0.27046753  0.43902855     0.30410
H1386       H  0.49996301  0.39033186  0.01811253     0.30680
Zr1387     Zr  0.11364202  0.40876194  0.43976244     2.17510
O1388       O  0.07945393  0.41251244  0.39998309    -0.51680
O1389       O  0.08804688  0.44211690  0.46982068    -0.74880
O1390       O  0.09093973  0.37889195  0.47629562    -0.81670
O1391       O  0.15297264  0.42553069  0.39128503    -0.83410
O1392       O  0.08763512  0.33337431  0.47250791    -0.79040
O1393       O  0.12026330  0.45117410  0.40887646    -0.90670
O1394       O  0.11530730  0.44890543  0.01166301    -0.76640
O1395       O  0.12198124  0.38676457  0.48746242    -0.86130
O1396       O  0.15076724  0.43577611  0.46033947    -0.85820
O1397       O  0.12500253  0.35946630  0.43061889    -0.72570
O1398       O  0.15164708  0.39914133  0.40779212    -0.84710
Zr1399     Zr  0.20810518  0.35928533  0.46377223     2.26420
Zr1400     Zr  0.13612970  0.33804199  0.47965873     2.06270
Zr1401     Zr  0.18904234  0.42526216  0.42808470     2.10050
Zr1402     Zr  0.15607743  0.41549297  0.00897910     1.78760
O1403       O  0.21258072  0.44355807  0.38436799    -0.93510
O1404       O  0.13139501  0.40045106  0.05367657    -0.41320
O1405       O  0.19472363  0.40613535  0.47651628    -0.77950
O1406       O  0.17169974  0.36686230  0.00072241    -0.96640
O1407       O  0.17169795  0.33185642  0.44379020    -0.89940
O1408       O  0.20049307  0.37802240  0.41566338    -0.92790
C1409       C  0.09341806  0.45441103  0.49536771     1.00970
C1410       C  0.13946681  0.44785039  0.38997904     1.13900
C1411       C  0.07682541  0.35720156  0.46924463     1.04680
O1412       O  0.12047393  0.33272659  0.03161880    -0.94940
O1413       O  0.16889812  0.30382843  0.00131051    -0.90680
O1414       O  0.20916073  0.32727267  0.00316272    -0.83830
C1415       C  0.19454662  0.30599358  0.00815585     1.11320
O1416       O  0.12719668  0.36135272  0.35633298    -0.96910
Zr1417     Zr  0.16147141  0.35208969  0.39581796     1.88940
O1418       O  0.22533929  0.32465289  0.42400679    -0.73560
O1419       O  0.12397762  0.29069029  0.46252311    -0.52820
O1420       O  0.13588276  0.30915367  0.38483769    -0.97500
O1421       O  0.18263067  0.36563435  0.34824800    -0.54720
O1422       O  0.19441246  0.31594537  0.38605353    -0.74080
C1423       C  0.21726741  0.31128569  0.39927030     0.98260
O1424       O  0.25628188  0.34819622  0.97068575    -0.62900
O1425       O  0.20161385  0.47089920  0.45005776    -0.57700
O1426       O  0.23646610  0.39871466  0.47996897    -0.94390
O1427       O  0.23695481  0.42449443  0.43819144    -0.92810
O1428       O  0.17918840  0.45940737  0.02212972    -0.93170
O1429       O  0.18551379  0.41493424  0.05420404    -0.91950
C1430       C  0.24661082  0.41846335  0.46433366     1.17110
H1431       H  0.14625727  0.45545650  0.46155953     0.33050
H1432       H  0.17666546  0.36021431  0.02070824     0.43900
H1433       H  0.21646194  0.37674491  0.40308313     0.37430
H1434       H  0.10954470  0.35022296  0.42129809     0.33910
H1435       H  0.12968434  0.41763226  0.06646840     0.25700
H1436       H  0.11028603  0.28402985  0.47712176     0.31630
H1437       H  0.14344534  0.30170360  0.36555920     0.37540
H1438       H  0.16618690  0.47423545  0.01598782     0.32000
H1439       H  0.20711902  0.48297553  0.43316381     0.30880
H1440       H  0.20943124  0.42927444  0.36807039     0.32560
H1441       H  0.18071160  0.34893942  0.33467545     0.31530
H1442       H  0.20246208  0.40563391  0.04733913     0.35530
H1443       H  0.26079022  0.35469251  0.99164430     0.28260
H1444       H  0.08972032  0.41279581  0.38073623     0.32490
H1445       H  0.12999808  0.34698454  0.34016683     0.35340
H1446       H  0.18548176  0.47954839  0.45949463     0.27950
H1447       H  0.25716231  0.32748606  0.97152496     0.40830
H1448       H  0.11432315  0.31296834  0.03248330     0.30880
H1449       H  0.11254174  0.39657125  0.04624709     0.38500
H1450       H  0.20246892  0.36681438  0.35275181     0.30350
H1451       H  0.11371298  0.29304221  0.44313336     0.30410
H1452       H  0.07177232  0.43162322  0.40221291     0.30680
Zr1453     Zr  0.30177893  0.26576139  0.37917693     2.17510
O1454       O  0.30882120  0.30611546  0.41348632    -0.51680
O1455       O  0.29336138  0.24304372  0.42611396    -0.74880
O1456       O  0.26075757  0.29082454  0.39314093    -0.81670
O1457       O  0.38024456  0.24478766  0.37875393    -0.83410
O1458       O  0.22663912  0.27385665  0.36198641    -0.79040
O1459       O  0.34962501  0.27739830  0.39348996    -0.90670
O1460       O  0.28863714  0.19603483  0.42102391    -0.76640
O1461       O  0.26984954  0.22836419  0.37032113    -0.86130
O1462       O  0.32842664  0.22475510  0.37495803    -0.85820
O1463       O  0.27590425  0.27730665  0.33364750    -0.72570
O1464       O  0.33059899  0.27580185  0.33727850    -0.84710
Zr1465     Zr  0.30332887  0.20684389  0.27741102     2.26420
Zr1466     Zr  0.24509718  0.23822649  0.32377842     2.06270
Zr1467     Zr  0.35703480  0.23362822  0.33203692     2.10050
Zr1468     Zr  0.29715480  0.18745776  0.36624199     1.78760
O1469       O  0.39232097  0.26917006  0.32603407    -0.93510
O1470       O  0.25542201  0.16149710  0.37614131    -0.41320
O1471       O  0.32703637  0.19430803  0.32340447    -0.77950
O1472       O  0.27344312  0.19709391  0.31932379    -0.96640
O1473       O  0.27471269  0.24710657  0.28210967    -0.89940
O1474       O  0.33260045  0.24566148  0.28629120    -0.92790
C1475       C  0.28861112  0.21893389  0.43699206     1.00970
C1476       C  0.37422948  0.26747367  0.39232162     1.13900
C1477       C  0.23580299  0.29026173  0.38409537     1.04680
O1478       O  0.20698371  0.21425535  0.34708614    -0.94940
O1479       O  0.22725517  0.20318807  0.28290763    -0.90680
O1480       O  0.26181259  0.18625152  0.25380937    -0.83830
C1481       C  0.23638536  0.18725634  0.26054787     1.11320
O1482       O  0.31138619  0.33336629  0.31183983    -0.96910
Zr1483     Zr  0.30469069  0.28587063  0.29160094     1.88940
O1484       O  0.29883495  0.23222237  0.23139737    -0.73560
O1485       O  0.21346302  0.26619887  0.29364836    -0.52820
O1486       O  0.26659469  0.31616679  0.27768159    -0.97500
O1487       O  0.34501373  0.30727342  0.26959380    -0.54720
O1488       O  0.29822814  0.27951621  0.23677370    -0.74080
C1489       C  0.29665763  0.25685863  0.22075681     0.98260
O1490       O  0.30958886  0.16323241  0.24870994    -0.62900
O1491       O  0.38527712  0.19244251  0.34075087    -0.57700
O1492       O  0.35163229  0.19680863  0.26391127    -0.94390
O1493       O  0.38408770  0.22285382  0.28861532    -0.92810
O1494       O  0.33385815  0.16299986  0.39276773    -0.93170
O1495       O  0.30012377  0.13857904  0.34971492    -0.91950
C1496       C  0.37686454  0.20444438  0.26895578     1.17110
H1497       H  0.33855556  0.22127189  0.39356168     0.33050
H1498       H  0.26255382  0.18064355  0.31466842     0.43900
H1499       H  0.34433290  0.24883660  0.26923462     0.37430
H1500       H  0.26601473  0.29461578  0.33636800     0.33910
H1501       H  0.25981276  0.15025534  0.39433643     0.25700
H1502       H  0.19564400  0.26389701  0.30367928     0.31630
H1503       H  0.27277545  0.32630897  0.25952505     0.37540
H1504       H  0.32456377  0.15178383  0.40832649     0.32000
H1505       H  0.40401295  0.19993401  0.34383216     0.30880
H1506       H  0.40983900  0.25914486  0.32900692     0.32560
H1507       H  0.34849289  0.29656070  0.25055509     0.31530
H1508       H  0.30084133  0.13929763  0.32721196     0.35530
H1509       H  0.29671577  0.14935538  0.25700718     0.28260
H1510       H  0.29938994  0.30158458  0.43259025     0.32490
H1511       H  0.31245656  0.34555248  0.29384662     0.35340
H1512       H  0.37996084  0.18588438  0.36110141     0.27950
H1513       H  0.30313333  0.16673329  0.22762697     0.40830
H1514       H  0.20959979  0.21770368  0.36923910     0.30880
H1515       H  0.24242920  0.17586553  0.38352258     0.38500
H1516       H  0.36025735  0.30212723  0.28348624     0.30350
H1517       H  0.21879698  0.28587146  0.29824983     0.30410
H1518       H  0.29854229  0.32206634  0.40483670     0.30680
Zr1519     Zr  0.27931768  0.20871526  0.12909201     2.17510
O1520       O  0.27378671  0.16348349  0.15339789    -0.51680
O1521       O  0.28490439  0.23308307  0.17666653    -0.74880
O1522       O  0.32118967  0.18875295  0.15110363    -0.81670
O1523       O  0.19797544  0.22272337  0.12270736    -0.83410
O1524       O  0.35472780  0.20240385  0.11903140    -0.79040
O1525       O  0.23185145  0.19669431  0.14381595    -0.90670
O1526       O  0.29369361  0.27950810  0.17261241    -0.76640
O1527       O  0.31206796  0.24526441  0.12218311    -0.86130
O1528       O  0.25343049  0.25048532  0.12581241    -0.85820
O1529       O  0.30509122  0.19655903  0.08414085    -0.72570
O1530       O  0.24993267  0.20034967  0.08586867    -0.84710
Zr1531     Zr  0.28000776  0.26744139  0.03074887     2.26420
Zr1532     Zr  0.33729918  0.23444677  0.07682955     2.06270
Zr1533     Zr  0.22389676  0.24290353  0.08230298     2.10050
Zr1534     Zr  0.28592982  0.28705836  0.11858243     1.78760
O1535       O  0.18904871  0.21166694  0.06064985    -0.93510
O1536       O  0.32829858  0.31177750  0.13141147    -0.41320
O1537       O  0.25571085  0.28017886  0.07554404    -0.77950
O1538       O  0.31067127  0.27626537  0.07312261    -0.96640
O1539       O  0.30733766  0.22656358  0.03426125    -0.89940
O1540       O  0.24802888  0.23078321  0.03679239    -0.92790
C1541       C  0.29129599  0.25709958  0.18798232     1.00970
C1542       C  0.20627301  0.20332788  0.14009430     1.13900
C1543       C  0.34622567  0.18872465  0.14282795     1.04680
O1544       O  0.37588148  0.26050871  0.09867203    -0.94940
O1545       O  0.35330542  0.26592103  0.03251084    -0.90680
O1546       O  0.31903166  0.28300816  0.00228123    -0.83830
C1547       C  0.34445112  0.28066298  0.00902585     1.11320
O1548       O  0.26636054  0.14293696  0.05997452    -0.96910
Zr1549     Zr  0.27543299  0.18962451  0.04052293     1.88940
O1550       O  0.28062243  0.24456434  0.48143417    -0.73560
O1551       O  0.36908209  0.20335992  0.05089581    -0.52820
O1552       O  0.31270531  0.15823124  0.02700515    -0.97500
O1553       O  0.23618257  0.16848779  0.51389100    -0.54720
O1554       O  0.28241170  0.19721792  0.48584278    -0.74080
C1555       C  0.28319567  0.21972388  0.47011134     0.98260
O1556       O  0.28100558  0.31772477  0.02423324    -0.62900
O1557       O  0.19499718  0.27961322  0.10365844    -0.57700
O1558       O  0.23542757  0.28325335  0.01410115    -0.94390
O1559       O  0.20063385  0.27096131  0.04501793    -0.92810
O1560       O  0.25041381  0.31313067  0.14493257    -0.93170
O1561       O  0.28247509  0.33555673  0.10217449    -0.91950
C1562       C  0.21043703  0.28422931  0.02270393     1.17110
H1563       H  0.24301638  0.25388746  0.14400696     0.33050
H1564       H  0.32239973  0.29201090  0.06899541     0.43900
H1565       H  0.23568622  0.22930603  0.01946808     0.37430
H1566       H  0.31482272  0.17925877  0.08754751     0.33910
H1567       H  0.32359240  0.32445138  0.14862074     0.25700
H1568       H  0.38663357  0.20609613  0.06207704     0.31630
H1569       H  0.30668333  0.14903573  0.50765198     0.37540
H1570       H  0.26035190  0.32508039  0.16008698     0.32000
H1571       H  0.17630031  0.27164044  0.10315317     0.30880
H1572       H  0.17161127  0.22170153  0.06385219     0.32560
H1573       H  0.24413789  0.15450640  0.49968248     0.31530
H1574       H  0.29939672  0.33920123  0.09083649     0.35530
H1575       H  0.26431772  0.32462254  0.03433985     0.28260
H1576       H  0.28016068  0.16602552  0.17478233     0.32490
H1577       H  0.26833870  0.12982290  0.04244193     0.35340
H1578       H  0.20007720  0.28070572  0.12555933     0.27950
H1579       H  0.29585472  0.32402143  0.03824881     0.40830
H1580       H  0.37397692  0.25869204  0.12096954     0.30880
H1581       H  0.34026009  0.29738793  0.14061824     0.38500
H1582       H  0.22883900  0.18323746  0.50046060     0.30350
H1583       H  0.36312814  0.18424382  0.05629998     0.30410
H1584       H  0.28700696  0.15049355  0.14381909     0.30680
C1585       C  0.31637772  0.40918178  0.44992851    -0.05690
C1586       C  0.30764099  0.39994640  0.47883983    -0.02800
C1587       C  0.28768197  0.41542931  0.49403087     0.02190
C1588       C  0.27152845  0.43276443  0.47593338    -0.05680
C1589       C  0.28523884  0.44840501  0.45419439    -0.02790
C1590       C  0.30702636  0.43542187  0.43913466     0.02180
C1591       C  0.31701372  0.37403656  0.49194523     0.36830
C1592       C  0.27378072  0.47462393  0.44408774     0.36820
C1593       C  0.31798853  0.44783266  0.41198533     0.35250
C1594       C  0.27883627  0.40808081  0.02419708     0.35250
N1595       N  0.32667021  0.45777308  0.39028985    -0.39570
N1596       N  0.27188782  0.40203781  0.04829690    -0.39570
N1597       N  0.26483162  0.49579392  0.43624017    -0.39020
N1598       N  0.32383181  0.35300271  0.50229604    -0.39020
C1599       C  0.31969821  0.06061496  0.20632886    -0.05690
C1600       C  0.31303994  0.05915825  0.17489670    -0.02800
C1601       C  0.28580638  0.05602985  0.16590001     0.02190
C1602       C  0.26592732  0.05628167  0.18839541    -0.05680
C1603       C  0.27297300  0.05365876  0.21954960    -0.02790
C1604       C  0.30034665  0.05476364  0.22841902     0.02180
C1605       C  0.33335827  0.06327446  0.15171643     0.36830
C1606       C  0.25250037  0.05431434  0.24301822     0.36820
C1607       C  0.30810702  0.05428315  0.26053196     0.35250
C1608       C  0.27794836  0.05687209  0.13385469     0.35250
N1609       N  0.31419419  0.05399946  0.28610271    -0.39570
N1610       N  0.27178156  0.05768447  0.10832961    -0.39570
N1611       N  0.23707550  0.05522941  0.26268123    -0.39020
N1612       N  0.34881830  0.06591234  0.13229142    -0.39020
C1613       C  0.02415109  0.39705282  0.41327180    -0.05690
C1614       C  0.03969161  0.37454536  0.40148075    -0.02800
C1615       C  0.05170350  0.35535861  0.42122507     0.02190
C1616       C  0.05138330  0.36090175  0.45260827    -0.05680
C1617       C  0.03413286  0.38149173  0.46444952    -0.02790
C1618       C  0.02201800  0.40093269  0.44502367     0.02180
C1619       C  0.04465871  0.37236784  0.36902465     0.36830
C1620       C  0.02628453  0.37955298  0.49594701     0.36820
C1621       C  0.00492743  0.42296323  0.45736940     0.35250
C1622       C  0.06346595  0.32960865  0.40942941     0.35250
N1623       N  0.99124940  0.44050512  0.46727043    -0.39570
N1624       N  0.07263058  0.30899773  0.39982959    -0.39570
N1625       N  0.01897178  0.37657403  0.02056820    -0.39020
N1626       N  0.04962995  0.37100570  0.34336984    -0.39020
C1627       C  0.01886942  0.08547555  0.26163309    -0.05690
C1628       C  0.04047158  0.10281859  0.27299666    -0.02800
C1629       C  0.05219624  0.12309448  0.25446440     0.02190
C1630       C  0.04644812  0.12273997  0.22312877    -0.05680
C1631       C  0.02484120  0.10595030  0.21151583    -0.02790
C1632       C  0.01121274  0.08700301  0.23044532     0.02180
C1633       C  0.05201663  0.09876450  0.30334970     0.36830
C1634       C  0.01496115  0.11072349  0.18080257     0.36820
C1635       C  0.98969251  0.06933858  0.21754673     0.35250
C1636       C  0.06866683  0.14540765  0.26804385     0.35250
N1637       N  0.97260203  0.05523900  0.20705961    -0.39570
N1638       N  0.08119520  0.16357991  0.27912527    -0.39570
N1639       N  0.00647666  0.11574625  0.15677915    -0.39020
N1640       N  0.06118271  0.09583023  0.32754838    -0.39020
C1641       C  0.98169230  0.21875542  0.30199933    -0.05690
C1642       C  0.96305304  0.23301119  0.28368923    -0.02800
C1643       C  0.94670578  0.25188008  0.29968274     0.02190
C1644       C  0.95808588  0.26636439  0.32536253    -0.05680
C1645       C  0.98495772  0.25897906  0.33552532    -0.02790
C1646       C  0.99668621  0.23427100  0.32372075     0.02180
C1647       C  0.95298990  0.21935120  0.25591017     0.36830
C1648       C  0.99984784  0.27467035  0.35888661     0.36820
C1649       C  0.02153206  0.22260720  0.33659060     0.35250
C1650       C  0.91744087  0.24815190  0.29708643     0.35250
N1651       N  0.04136450  0.21318851  0.34680041    -0.39570
N1652       N  0.89432460  0.24323955  0.29692601    -0.39570
N1653       N  0.01243995  0.28662092  0.37746758    -0.39020
N1654       N  0.94494262  0.20818052  0.23394574    -0.39020
C1655       C  0.54120676  0.13157969  0.18803802    -0.05690
C1656       C  0.53582606  0.13812827  0.15754045    -0.02800
C1657       C  0.54393644  0.11937652  0.13450705     0.02190
C1658       C  0.56361732  0.09820430  0.14070942    -0.05680
C1659       C  0.57306098  0.09507859  0.17122732    -0.02790
C1660       C  0.56132534  0.11130385  0.19479127     0.02180
C1661       C  0.52061833  0.16319971  0.14976444     0.36830
C1662       C  0.59332922  0.07419880  0.17914867     0.36820
C1663       C  0.56896740  0.10637973  0.22633285     0.35250
C1664       C  0.52875115  0.11988658  0.10582617     0.35250
N1665       N  0.57501424  0.10239951  0.25147859    -0.39570
N1666       N  0.51590637  0.12121648  0.08353232    -0.39570
N1667       N  0.60940819  0.05760330  0.18601382    -0.39020
N1668       N  0.50865606  0.18322826  0.14335204    -0.39020
C1669       C  0.55203561  0.36966847  0.01891796    -0.05690
C1670       C  0.56429490  0.37506199  0.99028692    -0.02800
C1671       C  0.55950559  0.35652621  0.46540428     0.02190
C1672       C  0.53931607  0.33585377  0.46768922    -0.05680
C1673       C  0.53277427  0.32647848  0.49670714    -0.02790
C1674       C  0.53555102  0.34533098  0.02154121     0.02180
C1675       C  0.57882014  0.40089137  0.98457760     0.36830
C1676       C  0.51885829  0.29984357  0.49989489     0.36820
C1677       C  0.51793464  0.34183923  0.04744165     0.35250
C1678       C  0.57093807  0.36181911  0.43576453     0.35250
N1679       N  0.50328220  0.33923445  0.06763620    -0.39570
N1680       N  0.58014036  0.36604712  0.41215434    -0.39570
N1681       N  0.50798817  0.27845113  0.50238488    -0.39020
N1682       N  0.58979023  0.42154841  0.97862891    -0.39020
C1683       C  0.59743757  0.21774560  0.03557087    -0.05690
C1684       C  0.61538036  0.23798602  0.02559779    -0.02800
C1685       C  0.62590740  0.25558567  0.04854745     0.02190
C1686       C  0.61016359  0.26019655  0.07518972    -0.05680
C1687       C  0.58371125  0.24784683  0.07652193    -0.02790
C1688       C  0.57643539  0.22792271  0.05389600     0.02180
C1689       C  0.62862136  0.23431999  0.99662451     0.36830
C1690       C  0.56545254  0.25319200  0.10159976     0.36820
C1691       C  0.54986431  0.21470308  0.05248321     0.35250
C1692       C  0.65423810  0.26330251  0.04728966     0.35250
N1693       N  0.52849885  0.20430429  0.05105122    -0.39570
N1694       N  0.67737611  0.26771237  0.04816103    -0.39570
N1695       N  0.55072037  0.25716159  0.12156744    -0.39020
N1696       N  0.63888563  0.23183109  0.97318828    -0.39020
C1697       C  0.02798348  0.51671879  0.50033844    -0.05690
C1698       C  0.05556098  0.52512412  0.49666582    -0.02800
C1699       C  0.07757386  0.50552587  0.49771764     0.02190
C1700       C  0.07290005  0.47712484  0.50458991    -0.05680
C1701       C  0.04637963  0.47022951  0.01468820    -0.02790
C1702       C  0.02395666  0.48948078  0.01194300     0.02180
C1703       C  0.06138687  0.55468953  0.49560432     0.36830
C1704       C  0.04324774  0.44474809  0.03152789     0.36820
C1705       C  0.99698184  0.48129889  0.02145655     0.35250
C1706       C  0.10531012  0.51483766  0.49306000     0.35250
N1707       N  0.97544248  0.47468706  0.02915937    -0.39570
N1708       N  0.12757213  0.52235201  0.49009200    -0.39570
N1709       N  0.04149096  0.42529463  0.04674571    -0.39020
N1710       N  0.06554791  0.57851070  0.49653810    -0.39020
C1711       C  0.95981494  0.56000768  0.32823082    -0.05690
C1712       C  0.97569435  0.53613411  0.32761889    -0.02800
C1713       C  0.96140599  0.51121187  0.33363279     0.02190
C1714       C  0.93355170  0.50795882  0.32276235    -0.05680
C1715       C  0.92159706  0.53139977  0.30832669    -0.02790
C1716       C  0.93558438  0.55760739  0.31019792     0.02180
C1717       C  0.00472332  0.53889499  0.33431506     0.36830
C1718       C  0.89454811  0.52948602  0.29466453     0.36820
C1719       C  0.92502694  0.58200506  0.29507550     0.35250
C1720       C  0.97412449  0.49436171  0.35687272     0.35250
N1721       N  0.91659592  0.60125450  0.28228081    -0.39570
N1722       N  0.98748366  0.48339196  0.37506339    -0.39570
N1723       N  0.87283453  0.52794639  0.28394862    -0.39020
N1724       N  0.02789782  0.54078455  0.33954016    -0.39020
C1725       C  0.55555992  0.51405393  0.40627306    -0.05690
C1726       C  0.54210580  0.50517827  0.43292188    -0.02800
C1727       C  0.52899243  0.47895987  0.43435933     0.02190
C1728       C  0.51784177  0.46539697  0.40785778    -0.05680
C1729       C  0.52760686  0.47619833  0.37972050    -0.02790
C1730       C  0.54776265  0.49876312  0.37915790     0.02180
C1731       C  0.53680124  0.52403163  0.45820771     0.36830
C1732       C  0.51824832  0.46331041  0.35140967     0.36820
C1733       C  0.55907271  0.50712477  0.35047027     0.35250
C1734       C  0.52994492  0.46589350  0.46391082     0.35250
N1735       N  0.56809426  0.51384936  0.32749499    -0.39570
N1736       N  0.53241110  0.45644671  0.48789217    -0.39570
N1737       N  0.51078154  0.45307735  0.32868498    -0.39020
N1738       N  0.53002326  0.53787709  0.47852805    -0.39020
C1739       C  0.63665524  0.54679453  0.05203197    -0.05690
C1740       C  0.61289583  0.53310745  0.06040329    -0.02800
C1741       C  0.61437630  0.51261206  0.08257998     0.02190
C1742       C  0.64062778  0.50323117  0.09349546    -0.05680
C1743       C  0.66323901  0.52094987  0.08985771    -0.02790
C1744       C  0.66109071  0.54329034  0.06939651     0.02180
C1745       C  0.58822534  0.53447095  0.54146167     0.36830
C1746       C  0.68890413  0.51525670  0.10548930     0.36820
C1747       C  0.68492591  0.56034026  0.06369483     0.35250
C1748       C  0.58860181  0.49854160  0.08775260     0.35250
N1749       N  0.70440934  0.57342151  0.05964314    -0.39570
N1750       N  0.56668547  0.48949841  0.08769317    -0.39570
N1751       N  0.70936248  0.51071692  0.11801694    -0.39020
N1752       N  0.56826683  0.53302458  0.52714987    -0.39020
C1753       C  0.76476396  0.55668156  0.43746872    -0.05690
C1754       C  0.77814878  0.55625128  0.46608878    -0.02800
C1755       C  0.80572178  0.54930526  0.46744939     0.02190
C1756       C  0.81997051  0.54675780  0.44014072    -0.05680
C1757       C  0.80602988  0.54293404  0.41211946    -0.02790
C1758       C  0.77788789  0.54767722  0.41082347     0.02180
C1759       C  0.76478492  0.56627586  0.49344923     0.36830
C1760       C  0.82092878  0.53796083  0.38426471     0.36820
C1761       C  0.76332230  0.54692639  0.38175531     0.35250
C1762       C  0.82024530  0.54815783  0.99649334     0.35250
N1763       N  0.75179530  0.54647665  0.35853478    -0.39570
N1764       N  0.83163987  0.54700521  0.01973620    -0.39570
N1765       N  0.83233649  0.53408864  0.36170909    -0.39020
N1766       N  0.75469802  0.57472412  0.01540150    -0.39020
C1767       C  0.00736440  0.97648426  0.14073471    -0.05690
C1768       C  0.00355567  0.00530137  0.13442036    -0.02800
C1769       C  0.02638115  0.02423526  0.13342920     0.02190
C1770       C  0.05318713  0.01549292  0.14163066    -0.05680
C1771       C  0.05716538  0.98639517  0.14569638    -0.02790
C1772       C  0.03480405  0.96713109  0.14364373     0.02180
C1773       C  0.97608299  0.01561135  0.12957676     0.36830
C1774       C  0.08447704  0.97618984  0.15224130     0.36820
C1775       C  0.04023708  0.93736446  0.14322480     0.35250
C1776       C  0.02255185  0.05238089  0.12253482     0.35250
N1777       N  0.04497236  0.91365568  0.14168076    -0.39570
N1778       N  0.01979306  0.07443834  0.11237856    -0.39570
N1779       N  0.10629940  0.96811797  0.15751448    -0.39020
N1780       N  0.95407305  0.02378201  0.12573111    -0.39020
C1781       C  0.91435579  0.97234637  0.26182988    -0.05690
C1782       C  0.89758114  0.99419851  0.25099653    -0.02800
C1783       C  0.87643791  0.00438039  0.26933531     0.02190
C1784       C  0.87649766  0.99753383  0.30024265    -0.05680
C1785       C  0.88799440  0.97171049  0.30839223    -0.02790
C1786       C  0.90808384  0.95961620  0.28971209     0.02180
C1787       C  0.90363297  0.00761798  0.22241148     0.36830
C1788       C  0.88239108  0.96068166  0.33816106     0.36820
C1789       C  0.92291975  0.93532906  0.30001819     0.35250
C1790       C  0.85616993  0.02349741  0.25756027     0.35250
N1791       N  0.93484380  0.91636746  0.30942403    -0.39570
N1792       N  0.83928534  0.03778530  0.24763806    -0.39570
N1793       N  0.87779120  0.95181288  0.36191708    -0.39020
N1794       N  0.90900028  0.01823519  0.19974417    -0.39020
C1795       C  0.56718239  0.97495625  0.24803475    -0.05690
C1796       C  0.56950768  0.99674344  0.27052837    -0.02800
C1797       C  0.54810154  0.01705459  0.27434235     0.02190
C1798       C  0.52357088  0.01518730  0.25681617    -0.05680
C1799       C  0.52006827  0.99170974  0.23726963    -0.02790
C1800       C  0.54160278  0.97258130  0.23229885     0.02180
C1801       C  0.59433173  0.99936232  0.28865428     0.36830
C1802       C  0.49441772  0.98803322  0.22043217     0.36820
C1803       C  0.53743934  0.95151278  0.20888701     0.35250
C1804       C  0.55167664  0.04043561  0.29544799     0.35250
N1805       N  0.53412537  0.93572874  0.18906445    -0.39570
N1806       N  0.55443929  0.05908079  0.31242191    -0.39570
N1807       N  0.47420884  0.98486775  0.20677664    -0.39020
N1808       N  0.61402843  0.00153691  0.30342721    -0.39020
C1809       C  0.68276511  0.98086117  0.04868800    -0.05690
C1810       C  0.69858484  0.97712538  0.07481926    -0.02800
C1811       C  0.68380159  0.97653031  0.10202477     0.02190
C1812       C  0.65700903  0.96427670  0.10154777    -0.05680
C1813       C  0.64603962  0.95531755  0.07270028    -0.02790
C1814       C  0.66003568  0.96282441  0.04595462     0.02180
C1815       C  0.72706114  0.98548514  0.07469910     0.36830
C1816       C  0.61978528  0.94140365  0.06988354     0.36820
C1817       C  0.64947732  0.95575117  0.01593880     0.35250
C1818       C  0.69374069  0.99455710  0.12671353     0.35250
N1819       N  0.64126393  0.94961309  0.99189614    -0.39570
N1820       N  0.70232305  0.01020150  0.14487490    -0.39570
N1821       N  0.59871872  0.93051138  0.06720330    -0.39020
N1822       N  0.74981000  0.99211464  0.07465413    -0.39020
C1823       C  0.77051605  0.94317428  0.23115498    -0.05690
C1824       C  0.78405225  0.95673723  0.20770421    -0.02800
C1825       C  0.80229300  0.94060645  0.19038380     0.02190
C1826       C  0.81091453  0.91426781  0.20165940    -0.05680
C1827       C  0.80389771  0.90685112  0.23180605    -0.02790
C1828       C  0.78585830  0.92411420  0.24806922     0.02180
C1829       C  0.77421846  0.98360262  0.19728309     0.36830
C1830       C  0.81365507  0.88149410  0.24573184     0.36820
C1831       C  0.77683823  0.91687475  0.27820383     0.35250
C1832       C  0.80970195  0.94975707  0.16025215     0.35250
N1833       N  0.76963917  0.91095371  0.30224521    -0.39570
N1834       N  0.81553479  0.95707888  0.13620226    -0.39570
N1835       N  0.82137217  0.86134513  0.25731907    -0.39020
N1836       N  0.76633226  0.00507063  0.18896959    -0.39020
C1837       C  0.05679844  0.51413875  0.27560669    -0.05690
C1838       C  0.02869278  0.51943626  0.26969109    -0.02800
C1839       C  0.00855549  0.49748736  0.27200568     0.02190
C1840       C  0.01573625  0.47005534  0.28175328    -0.05680
C1841       C  0.04403906  0.46414092  0.28376954    -0.02790
C1842       C  0.06410213  0.48564101  0.28002953     0.02180
C1843       C  0.02023093  0.54772504  0.26274817     0.36830
C1844       C  0.05269221  0.43572398  0.28962928     0.36820
C1845       C  0.09274596  0.47839036  0.27922853     0.35250
C1846       C  0.98053311  0.50279152  0.26293717     0.35250
N1847       N  0.11573609  0.47325902  0.27746714    -0.39570
N1848       N  0.95827777  0.50691714  0.25497412    -0.39570
N1849       N  0.05972050  0.41296343  0.29391626    -0.39020
N1850       N  0.01341112  0.57037511  0.25742641    -0.39020
C1851       C  0.04114805  0.64575134  0.43861262    -0.05690
C1852       C  0.03377526  0.64730936  0.40787700    -0.02800
C1853       C  0.04034885  0.62494743  0.38829159     0.02190
C1854       C  0.06158811  0.60623770  0.39650359    -0.05680
C1855       C  0.07366452  0.60885349  0.42606900    -0.02790
C1856       C  0.06417697  0.62980635  0.44638045     0.02180
C1857       C  0.01897712  0.67152112  0.39701680     0.36830
C1858       C  0.09445325  0.58952551  0.43642734     0.36820
C1859       C  0.07718776  0.63499298  0.47574480     0.35250
C1860       C  0.02442519  0.62036867  0.36047904     0.35250
N1861       N  0.08768700  0.63942427  0.49913533    -0.39570
N1862       N  0.01251595  0.61618518  0.33788409    -0.39570
N1863       N  0.11085229  0.57391509  0.44490655    -0.39020
N1864       N  0.00766264  0.69117374  0.38828903    -0.39020
C1865       C  0.15065336  0.46825564  0.36932421    -0.05690
C1866       C  0.15519463  0.45839215  0.33909856    -0.02800
C1867       C  0.17610334  0.47033330  0.32185727     0.02190
C1868       C  0.19094754  0.49299748  0.33424311    -0.05680
C1869       C  0.19202313  0.49622004  0.36604793    -0.02790
C1870       C  0.16878223  0.48822470  0.38232653     0.02180
C1871       C  0.13892950  0.43546201  0.32631323     0.36830
C1872       C  0.21267524  0.51442413  0.37971506     0.36820
C1873       C  0.16199632  0.50258462  0.41042071     0.35250
C1874       C  0.17979013  0.46264365  0.29019420     0.35250
N1875       N  0.15624857  0.51513809  0.43213936    -0.39570
N1876       N  0.18268261  0.45653176  0.26483784    -0.39570
N1877       N  0.22947039  0.52872856  0.39041544    -0.39020
N1878       N  0.12587381  0.41718867  0.31626683    -0.39020
C1879       C  0.05426574  0.96799666  0.37938795    -0.05690
C1880       C  0.05490333  0.99143560  0.39977190    -0.02800
C1881       C  0.03407249  0.01277979  0.39868257     0.02190
C1882       C  0.01074420  0.00979580  0.37905180    -0.05680
C1883       C  0.00791266  0.98316273  0.36388658    -0.02790
C1884       C  0.02980685  0.96357563  0.36258589     0.02180
C1885       C  0.07598645  0.99250917  0.42319028     0.36830
C1886       C  0.98161090  0.97474788  0.35127627     0.36820
C1887       C  0.02675692  0.93813387  0.34440227     0.35250
C1888       C  0.03669617  0.03743630  0.41808676     0.35250
N1889       N  0.02417321  0.91773415  0.33006990    -0.39570
N1890       N  0.03882696  0.05703204  0.43384131    -0.39570
N1891       N  0.96031893  0.96808865  0.34199325    -0.39020
N1892       N  0.09240033  0.99282150  0.44246000    -0.39020
C1893       C  0.15867842  0.02708622  0.29256726    -0.05690
C1894       C  0.14171129  0.03076440  0.31831334    -0.02800
C1895       C  0.15182874  0.02293095  0.34744956     0.02190
C1896       C  0.17741320  0.00958981  0.34992408    -0.05680
C1897       C  0.19641032  0.01788674  0.32876066    -0.02790
C1898       C  0.18670070  0.01958333  0.29843133     0.02180
C1899       C  0.11311464  0.03777989  0.31474259     0.36830
C1900       C  0.22505000  0.01312665  0.33573148     0.36820
C1901       C  0.20299829  0.00478031  0.27625110     0.35250
C1902       C  0.13462432  0.02395890  0.37375610     0.35250
N1903       N  0.21667158  0.99072641  0.26116151    -0.39570
N1904       N  0.12085517  0.02544321  0.39483956    -0.39570
N1905       N  0.24789248  0.00929922  0.34138981    -0.39020
N1906       N  0.09000708  0.04236397  0.31228267    -0.39020
C1907       C  0.03004000  0.88137593  0.20292397    -0.05690
C1908       C  0.05801535  0.87544334  0.19853780    -0.02800
C1909       C  0.07705387  0.88728363  0.22011844     0.02190
C1910       C  0.06664028  0.89697335  0.24871096    -0.05680
C1911       C  0.03854659  0.89576683  0.25250945    -0.02790
C1912       C  0.02369543  0.90015083  0.22631669     0.02180
C1913       C  0.06679976  0.85916211  0.17243673     0.36830
C1914       C  0.02718647  0.87742780  0.27490831     0.36820
C1915       C  0.02454475  0.92951226  0.21846221     0.35250
C1916       C  0.10556287  0.88910029  0.21264433     0.35250
N1917       N  0.02746115  0.95326975  0.21456764    -0.39570
N1918       N  0.12814033  0.89051916  0.20541501    -0.39570
N1919       N  0.01705429  0.86279000  0.29223639    -0.39020
N1920       N  0.07380405  0.84600587  0.15161459    -0.39020
C1921       C  0.11063937  0.77008310  0.30498867    -0.05690
C1922       C  0.08595514  0.75819279  0.31541887    -0.02800
C1923       C  0.07686102  0.73322019  0.30173243     0.02190
C1924       C  0.09566662  0.71841840  0.28418359    -0.05680
C1925       C  0.11328161  0.73389014  0.26610484    -0.02790
C1926       C  0.12233912  0.75975787  0.27773045     0.02180
C1927       C  0.07136018  0.76976272  0.34123528     0.36830
C1928       C  0.12622241  0.72052726  0.24026721     0.36820
C1929       C  0.14360159  0.77502721  0.26232679     0.35250
C1930       C  0.05103688  0.72061165  0.30953819     0.35250
N1931       N  0.16051090  0.78733759  0.25012146    -0.39570
N1932       N  0.03010711  0.71099641  0.31550091    -0.39570
N1933       N  0.13661612  0.70993229  0.21959015    -0.39020
N1934       N  0.05974763  0.77876528  0.36195417    -0.39020
C1935       C  0.51798998  0.88201761  0.14412878    -0.05690
C1936       C  0.53778765  0.86173577  0.13556386    -0.02800
C1937       C  0.54559041  0.84104790  0.15631755     0.02190
C1938       C  0.54369938  0.84781433  0.18731299    -0.05680
C1939       C  0.52188338  0.86499283  0.19635854    -0.02790
C1940       C  0.50844636  0.88193193  0.17463366     0.02180
C1941       C  0.55223192  0.86363213  0.10699170     0.36830
C1942       C  0.51636141  0.86806152  0.22851495     0.36820
C1943       C  0.48627594  0.89986349  0.18447321     0.35250
C1944       C  0.56230990  0.81752430  0.14678960     0.35250
N1945       N  0.46879459  0.91423347  0.19280675    -0.39570
N1946       N  0.57541910  0.79863872  0.13900317    -0.39570
N1947       N  0.51194560  0.87060488  0.25422448    -0.39020
N1948       N  0.56392204  0.86517901  0.08436724    -0.39020
C1949       C  0.43014385  0.03266187  0.11479594    -0.05690
C1950       C  0.41076771  0.01221544  0.12280362    -0.02800
C1951       C  0.39028157  0.00425579  0.10185276     0.02190
C1952       C  0.39747469  0.00463243  0.07122137    -0.05680
C1953       C  0.41520550  0.02603366  0.06192124    -0.02790
C1954       C  0.43069155  0.04130045  0.08410451     0.02180
C1955       C  0.41449964  0.99594336  0.15004087     0.36830
C1956       C  0.41931310  0.02991607  0.02972722     0.36820
C1957       C  0.44931097  0.06294097  0.07470591     0.35250
C1958       C  0.36748242  0.98705932  0.11126966     0.35250
N1959       N  0.46444399  0.07957101  0.06607554    -0.39570
N1960       N  0.34933898  0.97336447  0.11881537    -0.39570
N1961       N  0.42257092  0.03305401  0.00395945    -0.39020
N1962       N  0.41713057  0.98107408  0.17040883    -0.39020
C1963       C  0.51853610  0.97157930  0.02302926    -0.05690
C1964       C  0.51629251  0.99753591  0.03941303    -0.02800
C1965       C  0.53599559  0.01911141  0.03725896     0.02190
C1966       C  0.55932063  0.01598034  0.01929462    -0.05680
C1967       C  0.56083704  0.99143096  0.00061776    -0.02790
C1968       C  0.54062125  0.96944452  0.00234360     0.02180
C1969       C  0.49436226  0.00211516  0.06049143     0.36830
C1970       C  0.58306653  0.98901496  0.47945925     0.36820
C1971       C  0.54341231  0.94426412  0.48386991     0.35250
C1972       C  0.53242514  0.04473677  0.05475885     0.35250
N1973       N  0.54569830  0.92418821  0.46897422    -0.39570
N1974       N  0.52884020  0.06490041  0.06897081    -0.39570
N1975       N  0.60055267  0.98755102  0.46208538    -0.39020
N1976       N  0.47771682  0.00549701  0.07844655    -0.39020
C1977       C  0.51679406  0.51730476  0.14579382    -0.05690
C1978       C  0.54551814  0.51931034  0.15049611    -0.02800
C1979       C  0.56224579  0.49466195  0.15395541     0.02190
C1980       C  0.55131686  0.46717878  0.14914690    -0.05680
C1981       C  0.52238139  0.46527812  0.14729473    -0.02790
C1982       C  0.50544990  0.48989762  0.14790517     0.02180
C1983       C  0.55812804  0.54676914  0.15044905     0.36830
C1984       C  0.50992489  0.43785441  0.14367398     0.36820
C1985       C  0.47610144  0.48697446  0.14999541     0.35250
C1986       C  0.59123949  0.49767436  0.16020293     0.35250
N1987       N  0.45268768  0.48461380  0.15216480    -0.39570
N1988       N  0.61438300  0.50010580  0.16537437    -0.39570
N1989       N  0.50000226  0.41592282  0.14062050    -0.39020
N1990       N  0.56819141  0.56874335  0.15032281    -0.39020
C1991       C  0.52293092  0.61705121  0.00946292    -0.05690
C1992       C  0.51113964  0.61392499  0.47959600    -0.02800
C1993       C  0.52121384  0.63009843  0.45562351     0.02190
C1994       C  0.54335022  0.64836119  0.46095587    -0.05680
C1995       C  0.54990355  0.65635752  0.49100034    -0.02790
C1996       C  0.54278798  0.63849343  0.01467435     0.02180
C1997       C  0.49205078  0.59159530  0.47181260     0.36830
C1998       C  0.56669159  0.68096409  0.99705361     0.36820
C1999       C  0.55995236  0.63877221  0.04197473     0.35250
C2000       C  0.51133913  0.62565630  0.42457706     0.35250
N2001       N  0.57415472  0.63863662  0.06330431    -0.39570
N2002       N  0.50344369  0.62215066  0.39982301    -0.39570
N2003       N  0.57974067  0.70085156  0.00185500    -0.39020
N2004       N  0.47723740  0.57365387  0.46466025    -0.39020
C2005       C  0.42731653  0.49095309  0.08630061    -0.05690
C2006       C  0.45159438  0.48375608  0.07092906    -0.02800
C2007       C  0.45056996  0.46449624  0.04757359     0.02190
C2008       C  0.43040347  0.44402920  0.04752423    -0.05680
C2009       C  0.40905132  0.44573139  0.06902502    -0.02790
C2010       C  0.40694568  0.47008071  0.08776674     0.02180
C2011       C  0.47887410  0.49186419  0.07942041     0.36830
C2012       C  0.38771307  0.42467528  0.06921304     0.36820
C2013       C  0.38308810  0.47468961  0.10626968     0.35250
C2014       C  0.46662316  0.46996924  0.52063019     0.35250
N2015       N  0.36406455  0.47838101  0.12111715    -0.39570
N2016       N  0.47785413  0.47491951  0.49839203    -0.39570
N2017       N  0.37032624  0.40822333  0.06954439    -0.39020
N2018       N  0.50237893  0.49387339  0.08175869    -0.39020
C2019       C  0.46495636  0.77025935  0.09985547    -0.05690
C2020       C  0.45236559  0.76436686  0.12802097    -0.02800
C2021       C  0.46230339  0.74173178  0.14475225     0.02190
C2022       C  0.48150019  0.72471449  0.13047795    -0.05680
C2023       C  0.50125058  0.73865459  0.11378681    -0.02790
C2024       C  0.49122885  0.75891345  0.09392040     0.02180
C2025       C  0.42996347  0.78092107  0.13963280     0.36830
C2026       C  0.52854326  0.72735457  0.11125767     0.36820
C2027       C  0.50627768  0.76520247  0.06665135     0.35250
C2028       C  0.44882350  0.73188765  0.17161567     0.35250
N2029       N  0.51827662  0.76994428  0.04481345    -0.39570
N2030       N  0.43811657  0.72391626  0.19313442    -0.39570
N2031       N  0.55051851  0.71867077  0.10931647    -0.39020
N2032       N  0.41233205  0.79426094  0.14935812    -0.39020
Zr2033     Zr  0.46418311  0.56681341  0.56783173     2.17510
O2034       O  0.47526752  0.52974646  0.53129811    -0.51680
O2035       O  0.49362653  0.54225530  0.60520577    -0.74880
O2036       O  0.50035316  0.57715790  0.53147293    -0.81670
O2037       O  0.40235476  0.53241365  0.60375625    -0.83410
O2038       O  0.51406469  0.61075258  0.56171249    -0.79040
O2039       O  0.42715687  0.53450028  0.56207394    -0.90670
O2040       O  0.49031140  0.56153459  0.65216411    -0.76640
O2041       O  0.48631459  0.60293076  0.59688846    -0.86130
O2042       O  0.43930538  0.56983385  0.61477367    -0.85820
O2043       O  0.45746078  0.60833102  0.53787093    -0.72570
O2044       O  0.41624603  0.57708535  0.55741695    -0.84710
Zr2045     Zr  0.41048373  0.66071349  0.59516711     2.26420
Zr2046     Zr  0.47920950  0.64475912  0.56770848     2.06270
Zr2047     Zr  0.39183555  0.58328202  0.60470939     2.10050
Zr2048     Zr  0.46162811  0.60448954  0.64324103     1.78760
O2049       O  0.35212881  0.56338568  0.57816494    -0.93510
O2050       O  0.50484274  0.62538202  0.66024373    -0.41320
O2051       O  0.41560316  0.62085135  0.62981184    -0.77950
O2052       O  0.45451417  0.64562228  0.61380370    -0.96640
O2053       O  0.43402796  0.65541008  0.54957401    -0.89940
O2054       O  0.38689624  0.62250036  0.57123961    -0.92790
C2055       C  0.49931685  0.54216236  0.63394376     1.00970
C2056       C  0.41863217  0.52077593  0.58458602     1.13900
C2057       C  0.51421597  0.59953122  0.53554305     1.04680
O2058       O  0.52039081  0.67333215  0.56856336    -0.94940
O2059       O  0.48612389  0.68468699  0.59986164    -0.90680
O2060       O  0.44316469  0.69818415  0.61088900    -0.83830
C2061       C  0.46940652  0.70128186  0.61261948     1.11320
O2062       O  0.42221176  0.58511498  0.98264963    -0.96910
Zr2063     Zr  0.41073039  0.61644612  0.52488371     1.88940
O2064       O  0.37699979  0.67791658  0.55351062    -0.73560
O2065       O  0.47944533  0.66915912  0.51918742    -0.52820
O2066       O  0.42510369  0.64567449  0.98296366    -0.97500
O2067       O  0.37281785  0.58731733  0.50637060    -0.54720
O2068       O  0.37360565  0.64800600  0.51306605    -0.74080
C2069       C  0.36632008  0.67036646  0.52697613     0.98260
O2070       O  0.39361983  0.70756304  0.60549848    -0.62900
O2071       O  0.37599526  0.56653620  0.65346616    -0.57700
O2072       O  0.38298198  0.65433394  0.63801918    -0.94390
O2073       O  0.35652726  0.61736822  0.62572812    -0.92810
O2074       O  0.43786346  0.58117949  0.68408235    -0.93170
O2075       O  0.45983424  0.63283430  0.68979782    -0.91950
C2076       C  0.35981721  0.64265669  0.63681705     1.17110
H2077       H  0.44113769  0.55302162  0.62658941     0.33050
H2078       H  0.46060122  0.65692202  0.63088648     0.43900
H2079       H  0.36776211  0.62642030  0.56777850     0.37430
H2080       H  0.46526804  0.60732757  0.51802408     0.33910
H2081       H  0.51623084  0.60942874  0.66695934     0.25700
H2082       H  0.49821054  0.67627918  0.51645730     0.31630
H2083       H  0.40958807  0.64541335  0.96822006     0.37540
H2084       H  0.45249599  0.57241799  0.69648544     0.32000
H2085       H  0.36058769  0.55381308  0.64812193     0.30880
H2086       H  0.33727983  0.56466599  0.59316893     0.32560
H2087       H  0.36585462  0.59669250  0.98786861     0.31530
H2088       H  0.44439413  0.64585765  0.68636972     0.35530
H2089       H  0.37349466  0.70634368  0.60367428     0.28260
H2090       H  0.47043274  0.53702947  0.51094011     0.32490
H2091       H  0.41354187  0.59325828  0.96429652     0.35340
H2092       H  0.39066540  0.55394568  0.66078906     0.27950
H2093       H  0.39744515  0.70962888  0.62750789     0.40830
H2094       H  0.53132438  0.66632237  0.58603775     0.30880
H2095       H  0.51357498  0.63187389  0.64142289     0.38500
H2096       H  0.35829340  0.59020499  0.52152702     0.30350
H2097       H  0.47696811  0.65453352  0.50318324     0.30410
H2098       H  0.49537029  0.52730311  0.03142180     0.30680
Zr2099     Zr  0.45389795  0.92809116  0.58698776     2.17510
O2100       O  0.45978550  0.96545791  0.62490779    -0.51680
O2101       O  0.49091860  0.94730895  0.55816572    -0.74880
O2102       O  0.49042502  0.92052802  0.62501130    -0.81670
O2103       O  0.38661170  0.95921429  0.55269907    -0.83410
O2104       O  0.50302081  0.88806469  0.59351872    -0.79040
O2105       O  0.42913634  0.96931723  0.57227497    -0.90670
O2106       O  0.48946586  0.92934193  0.51038330    -0.76640
O2107       O  0.47873217  0.89192648  0.56183948    -0.86130
O2108       O  0.43220266  0.92285370  0.53787782    -0.85820
O2109       O  0.44667288  0.88780403  0.61824496    -0.72570
O2110       O  0.40584564  0.91833710  0.59428307    -0.84710
Zr2111     Zr  0.40325464  0.83249209  0.55758877     2.26420
Zr2112     Zr  0.47060938  0.85109908  0.59157200     2.06270
Zr2113     Zr  0.38516283  0.90896558  0.54475967     2.10050
Zr2114     Zr  0.45750839  0.88759270  0.51349386     1.78760
O2115       O  0.34120741  0.93050118  0.55536986    -0.93510
O2116       O  0.50065991  0.86477675  0.00178745    -0.41320
O2117       O  0.41121935  0.87166490  0.52355529    -0.77950
O2118       O  0.44903689  0.84575594  0.54261790    -0.96640
O2119       O  0.42461881  0.84166353  0.60491187    -0.89940
O2120       O  0.37836249  0.87070709  0.57897438    -0.92790
C2121       C  0.49867180  0.94747716  0.53048074     1.00970
C2122       C  0.40519543  0.97614339  0.56265076     1.13900
C2123       C  0.50513194  0.89911946  0.61971003     1.04680
O2124       O  0.51224071  0.82354855  0.59175663    -0.94940
O2125       O  0.46760419  0.80713534  0.56653623    -0.90680
O2126       O  0.42643110  0.79192773  0.57719451    -0.83830
C2127       C  0.45231067  0.78970138  0.57891297     1.11320
O2128       O  0.40779610  0.91384509  0.66787699    -0.96910
Zr2129     Zr  0.39948385  0.87943332  0.62709820     1.88940
O2130       O  0.36706425  0.81436365  0.59428226    -0.73560
O2131       O  0.47310030  0.83081292  0.64223168    -0.52820
O2132       O  0.41280996  0.85622670  0.67408445    -0.97500
O2133       O  0.35781949  0.90539371  0.63806850    -0.54720
O2134       O  0.36618197  0.84279664  0.63645899    -0.74080
C2135       C  0.35809148  0.82090800  0.62158490     0.98260
O2136       O  0.40451080  0.79223216  0.02262404    -0.62900
O2137       O  0.38112611  0.92078223  0.49112925    -0.57700
O2138       O  0.37734623  0.84371214  0.51415792    -0.94390
O2139       O  0.34815262  0.87636000  0.52802170    -0.92810
O2140       O  0.43938150  0.91221358  0.96942386    -0.93170
O2141       O  0.45601212  0.86000843  0.96634870    -0.91950
C2142       C  0.35320981  0.85159330  0.51776898     1.17110
H2143       H  0.43341918  0.93962031  0.52591269     0.33050
H2144       H  0.45553318  0.83202744  0.52798536     0.43900
H2145       H  0.35921955  0.86652817  0.58136991     0.37430
H2146       H  0.45433948  0.89034403  0.63834021     0.33910
H2147       H  0.50988753  0.87774504  0.98786501     0.25700
H2148       H  0.49244296  0.82629669  0.64646835     0.31630
H2149       H  0.39612678  0.85606289  0.68653866     0.37540
H2150       H  0.45557531  0.92063263  0.95987181     0.32000
H2151       H  0.36164260  0.91753769  0.48577931     0.30880
H2152       H  0.33391376  0.93599174  0.53516748     0.32560
H2153       H  0.34862803  0.89449993  0.65396560     0.31530
H2154       H  0.44101531  0.84638639  0.96921401     0.35530
H2155       H  0.39581750  0.79783921  0.00317175     0.28260
H2156       H  0.47913860  0.97140018  0.62410107     0.32490
H2157       H  0.39446771  0.90952056  0.68387188     0.35340
H2158       H  0.38331966  0.94141917  0.49079765     0.27950
H2159       H  0.42400764  0.78991641  0.01749692     0.40830
H2160       H  0.51970903  0.82604606  0.57114100     0.30880
H2161       H  0.51157255  0.86601862  0.52094247     0.38500
H2162       H  0.34605935  0.90286504  0.61968132     0.30350
H2163       H  0.46836884  0.84589896  0.65688199     0.30410
H2164       H  0.45824583  0.95611054  0.64476981     0.30680
Zr2165     Zr  0.12921546  0.93316018  0.81883022     2.17510
O2166       O  0.11921135  0.97625037  0.79185920    -0.51680
O2167       O  0.09244962  0.95486290  0.84864969    -0.74880
O2168       O  0.09988107  0.92654539  0.77397805    -0.81670
O2169       O  0.18814661  0.96297207  0.86754430    -0.83410
O2170       O  0.07951716  0.89409843  0.79980605    -0.79040
O2171       O  0.16196738  0.96948012  0.82532126    -0.90670
O2172       O  0.08512926  0.92837198  0.89016048    -0.76640
O2173       O  0.10182140  0.89707749  0.83948112    -0.86130
O2174       O  0.14722289  0.92582080  0.86914628    -0.85820
O2175       O  0.13790184  0.89368996  0.78495285    -0.72570
O2176       O  0.17752357  0.92259264  0.81463222    -0.84710
Zr2177     Zr  0.17510887  0.83596381  0.84412701     2.26420
Zr2178     Zr  0.11107746  0.85747213  0.80723161     2.06270
Zr2179     Zr  0.19477129  0.91174540  0.86488848     2.10050
Zr2180     Zr  0.12016141  0.88992811  0.88877320     1.78760
O2181       O  0.23752960  0.93374036  0.85066241    -0.93510
O2182       O  0.07828878  0.86405195  0.89829158    -0.41320
O2183       O  0.16659194  0.87414900  0.88043351    -0.77950
O2184       O  0.12908172  0.84914412  0.85710595    -0.96640
O2185       O  0.15737069  0.84651533  0.79591041    -0.89940
O2186       O  0.20272575  0.87417038  0.82870994    -0.92790
C2187       C  0.07925267  0.94949165  0.87300541     1.00970
C2188       C  0.17523396  0.97874747  0.84864459     1.13900
C2189       C  0.08252325  0.90679041  0.77513746     1.04680
O2190       O  0.06682680  0.83468828  0.80145131    -0.94940
O2191       O  0.10588095  0.81324808  0.82843188    -0.90680
O2192       O  0.14825098  0.79799199  0.82141948    -0.83830
C2193       C  0.12235193  0.79461026  0.82009939     1.11320
O2194       O  0.17871872  0.91951738  0.74035086    -0.96910
Zr2195     Zr  0.18526429  0.88445610  0.77962025     1.88940
O2196       O  0.21188827  0.81702093  0.80854688    -0.73560
O2197       O  0.10834673  0.83444907  0.75736811    -0.52820
O2198       O  0.17645970  0.86026258  0.73112772    -0.97500
O2199       O  0.22794615  0.90982564  0.77299086    -0.54720
O2200       O  0.21809062  0.84741494  0.76987518    -0.74080
C2201       C  0.22341600  0.82427377  0.78304187     0.98260
O2202       O  0.17555989  0.79612665  0.87808460    -0.62900
O2203       O  0.20307787  0.92154424  0.91883136    -0.57700
O2204       O  0.20024086  0.83954111  0.88974462    -0.94390
O2205       O  0.22842379  0.87581499  0.88363293    -0.92810
O2206       O  0.13476087  0.91618039  0.93426385    -0.93170
O2207       O  0.12175645  0.86314108  0.93552924    -0.91950
C2208       C  0.22382306  0.85001624  0.89088247     1.17110
H2209       H  0.14486545  0.94232692  0.88186191     0.33050
H2210       H  0.12168667  0.83447767  0.86950528     0.43900
H2211       H  0.22183558  0.86930106  0.82774242     0.37430
H2212       H  0.13275540  0.89575986  0.76394742     0.33910
H2213       H  0.06768520  0.87647691  0.91196710     0.25700
H2214       H  0.09041252  0.83958138  0.74846765     0.31630
H2215       H  0.19297201  0.86341091  0.71889463     0.37540
H2216       H  0.11806811  0.92574385  0.94145549     0.32000
H2217       H  0.22082031  0.93155174  0.91957878     0.30880
H2218       H  0.25015686  0.91790732  0.84692293     0.32560
H2219       H  0.23605512  0.90126958  0.75453983     0.31530
H2220       H  0.13586604  0.84867246  0.93186133     0.35530
H2221       H  0.16270098  0.80130504  0.89443185     0.28260
H2222       H  0.09905074  0.97766297  0.79047371     0.32490
H2223       H  0.19265458  0.91541791  0.72481564     0.35340
H2224       H  0.18948007  0.93605731  0.92425498     0.27950
H2225       H  0.16650955  0.78015047  0.86740580     0.40830
H2226       H  0.05842375  0.83674775  0.82174861     0.30880
H2227       H  0.06808110  0.86426280  0.87864725     0.38500
H2228       H  0.23997756  0.90366455  0.78991735     0.30350
H2229       H  0.12209788  0.84389281  0.74485922     0.30410
H2230       H  0.12526044  0.97303966  0.77067246     0.30680
Zr2231     Zr  0.12424327  0.56094234  0.83833523     2.17510
O2232       O  0.11641924  0.52033540  0.87002121    -0.51680
O2233       O  0.09055263  0.53477994  0.80844718    -0.74880
O2234       O  0.08916431  0.56767893  0.87717808    -0.81670
O2235       O  0.19843329  0.53663301  0.81117169    -0.83410
O2236       O  0.07406227  0.59832788  0.84565179    -0.79040
O2237       O  0.15688893  0.52487099  0.83011434    -0.90670
O2238       O  0.08362992  0.55785465  0.76451699    -0.76640
O2239       O  0.09718153  0.59482989  0.81279686    -0.86130
O2240       O  0.14623024  0.56552692  0.79015805    -0.85820
O2241       O  0.12902226  0.60261700  0.86994366    -0.72570
O2242       O  0.17151520  0.57487216  0.84629928    -0.84710
Zr2243     Zr  0.16964370  0.65846342  0.81198500     2.26420
Zr2244     Zr  0.10379581  0.63753981  0.84222110     2.06270
Zr2245     Zr  0.19208423  0.58466350  0.79752050     2.10050
Zr2246     Zr  0.11838242  0.59789472  0.76520394     1.78760
O2247       O  0.23876185  0.56881471  0.80625816    -0.93510
O2248       O  0.07663199  0.62199584  0.74989360    -0.41320
O2249       O  0.16380697  0.61919857  0.77540234    -0.77950
O2250       O  0.12595262  0.64024180  0.79468237    -0.96640
O2251       O  0.14881230  0.65130227  0.85863358    -0.89940
O2252       O  0.19662944  0.62257023  0.83328157    -0.92790
C2253       C  0.07813264  0.53739958  0.78282218     1.00970
C2254       C  0.18151793  0.51949223  0.82258285     1.13900
C2255       C  0.07342848  0.58826893  0.87198302     1.04680
O2256       O  0.06123088  0.66359005  0.84481765    -0.94940
O2257       O  0.09316092  0.67731699  0.81216810    -0.90680
O2258       O  0.13500015  0.69438306  0.80205767    -0.83830
C2259       C  0.10871255  0.69549085  0.80063667     1.11320
O2260       O  0.16684374  0.58090378  0.92113663    -0.96910
Zr2261     Zr  0.17537610  0.61392828  0.88056262     1.88940
O2262       O  0.20430151  0.67700285  0.85238803    -0.73560
O2263       O  0.10423278  0.66156049  0.89176105    -0.52820
O2264       O  0.16199689  0.64156813  0.92505266    -0.97500
O2265       O  0.21603782  0.58792653  0.89555022    -0.54720
O2266       O  0.21099578  0.64728479  0.89153427    -0.74080
C2267       C  0.21661342  0.66984516  0.87791443     0.98260
O2268       O  0.18191515  0.70609850  0.80010544    -0.62900
O2269       O  0.19435094  0.56807193  0.74490742    -0.57700
O2270       O  0.19769539  0.65616119  0.76897179    -0.94390
O2271       O  0.22559830  0.62019483  0.77879788    -0.92810
O2272       O  0.13609927  0.56862717  0.72407466    -0.93170
O2273       O  0.11940491  0.62076243  0.71605142    -0.91950
C2274       C  0.22116303  0.64522284  0.76892536     1.17110
H2275       H  0.14642040  0.54794525  0.77890843     0.33050
H2276       H  0.11880422  0.65175864  0.77867743     0.43900
H2277       H  0.21566405  0.62756041  0.83576319     0.37430
H2278       H  0.12200651  0.60088014  0.89005848     0.33910
H2279       H  0.06501906  0.60726086  0.74017500     0.25700
H2280       H  0.08513162  0.66636807  0.89644082     0.31630
H2281       H  0.17793880  0.64103842  0.93919184     0.37540
H2282       H  0.12080017  0.55595437  0.71819284     0.32000
H2283       H  0.21241418  0.57445250  0.73788969     0.30880
H2284       H  0.24544608  0.56356388  0.78578027     0.32560
H2285       H  0.22328740  0.59770283  0.91404071     0.31530
H2286       H  0.13089067  0.63763886  0.71969021     0.35530
H2287       H  0.20203003  0.70668866  0.80260421     0.28260
H2288       H  0.09778865  0.51359345  0.86465581     0.32490
H2289       H  0.17670071  0.58845837  0.93934910     0.35340
H2290       H  0.19613021  0.54745619  0.74637891     0.27950
H2291       H  0.17850291  0.70665711  0.77788632     0.40830
H2292       H  0.05020005  0.65706303  0.82693709     0.30880
H2293       H  0.06743610  0.62660881  0.76926198     0.38500
H2294       H  0.22951460  0.59190720  0.87959783     0.30350
H2295       H  0.10961320  0.64740466  0.90688160     0.30410
H2296       H  0.11517535  0.52731659  0.89129032     0.30680
Zr2297     Zr  0.25832575  0.75641227  0.90613300     2.17510
O2298       O  0.21449242  0.75022645  0.88058688    -0.51680
O2299       O  0.27759873  0.75523777  0.85652740    -0.74880
O2300       O  0.23994850  0.80387309  0.89618020    -0.81670
O2301       O  0.25397395  0.67966889  0.91526181    -0.83410
O2302       O  0.26418325  0.83940344  0.91843849    -0.79040
O2303       O  0.23631802  0.71470618  0.88622021    -0.90670
O2304       O  0.32335262  0.74826863  0.85994282    -0.76640
O2305       O  0.29649773  0.78666336  0.90965234    -0.86130
O2306       O  0.29689757  0.72576854  0.90888875    -0.85820
O2307       O  0.24904184  0.78281524  0.95134829    -0.72570
O2308       O  0.25212846  0.72637417  0.94896224    -0.84710
Zr2309     Zr  0.32215523  0.75686939  0.00235119     2.26420
Zr2310     Zr  0.28836736  0.81280808  0.95583918     2.06270
Zr2311     Zr  0.29183724  0.69688483  0.95238607     2.10050
Zr2312     Zr  0.33517149  0.75622723  0.91328363     1.78760
O2313       O  0.26912898  0.65940465  0.97929478    -0.93510
O2314       O  0.35533783  0.79532313  0.88643363    -0.41320
O2315       O  0.33062499  0.72813337  0.95780760    -0.77950
O2316       O  0.32913569  0.78471879  0.95817256    -0.96640
O2317       O  0.28238640  0.78490365  0.00022799    -0.89940
O2318       O  0.28474403  0.72463911  0.99742364    -0.92790
C2319       C  0.30072413  0.74960174  0.84497283     1.00970
C2320       C  0.23736710  0.68901963  0.89385084     1.13900
C2321       C  0.24465195  0.83025153  0.90170758     1.04680
O2322       O  0.31884533  0.84831990  0.93604459    -0.94940
O2323       O  0.31142052  0.83895036  0.99504333    -0.90680
O2324       O  0.33932505  0.80478316  0.51265890    -0.83830
C2325       C  0.33267172  0.83077595  0.00911391     1.11320
O2326       O  0.19677844  0.75694860  0.97998831    -0.96910
Zr2327     Zr  0.24488136  0.75309320  0.49456926     1.88940
O2328       O  0.30163049  0.75117229  0.55064466    -0.73560
O2329       O  0.25593682  0.84379601  0.98121141    -0.52820
O2330       O  0.22408775  0.79181510  0.52268004    -0.97500
O2331       O  0.21870033  0.71147432  0.50725447    -0.54720
O2332       O  0.25577207  0.74522448  0.54755815    -0.74080
C2333       C  0.27856862  0.74589401  0.56219524     0.98260
O2334       O  0.36025307  0.76402386  0.03829082    -0.62900
O2335       O  0.31664653  0.66276510  0.92162395    -0.57700
O2336       O  0.34681342  0.71507116  0.51741875    -0.94390
O2337       O  0.32874557  0.67889173  0.98942400    -0.92810
O2338       O  0.36222078  0.71556793  0.89848477    -0.93170
O2339       O  0.38371590  0.76136786  0.92556208    -0.91950
C2340       C  0.34563001  0.68900666  0.01043376     1.17110
H2341       H  0.29782219  0.71360603  0.89114537     0.33050
H2342       H  0.34507825  0.79659398  0.96000982     0.43900
H2343       H  0.28415365  0.71189700  0.51427515     0.37430
H2344       H  0.23238523  0.79350017  0.94944864     0.33910
H2345       H  0.36697756  0.78642954  0.87078122     0.25700
H2346       H  0.26086476  0.86292452  0.97473772     0.31630
H2347       H  0.23922658  0.80049843  0.53473371     0.37540
H2348       H  0.37057852  0.72076062  0.87896784     0.32000
H2349       H  0.31336728  0.64458167  0.93151534     0.30880
H2350       H  0.28196028  0.64340482  0.97830764     0.32560
H2351       H  0.21079053  0.71581818  0.52740069     0.31530
H2352       H  0.38549920  0.77935324  0.93699567     0.35530
H2353       H  0.35452480  0.75594249  0.05782749     0.28260
H2354       H  0.21404028  0.76468130  0.86466596     0.32490
H2355       H  0.18661899  0.75719403  0.49934319     0.35340
H2356       H  0.30625297  0.66141857  0.90212768     0.27950
H2357       H  0.37564510  0.75214336  0.03156238     0.40830
H2358       H  0.33040957  0.83807132  0.92132758     0.30880
H2359       H  0.34001305  0.80361045  0.87468664     0.38500
H2360       H  0.23261432  0.69693582  0.51141941     0.30350
H2361       H  0.23796812  0.84002439  0.97131862     0.30410
H2362       H  0.20123273  0.75609377  0.89620538     0.30680
Zr2363     Zr  0.25813278  0.73626750  0.74929761     2.17510
O2364       O  0.20921437  0.74479843  0.74969240    -0.51680
O2365       O  0.27661156  0.73905581  0.80028592    -0.74880
O2366       O  0.23996976  0.69018014  0.76369850    -0.81670
O2367       O  0.25676286  0.81286312  0.74284937    -0.83410
O2368       O  0.25951986  0.65377961  0.73766541    -0.79040
O2369       O  0.24198905  0.77861160  0.77446537    -0.90670
O2370       O  0.32280461  0.74392309  0.79810708    -0.76640
O2371       O  0.29635174  0.70566709  0.74785721    -0.86130
O2372       O  0.29671021  0.76677908  0.74683511    -0.85820
O2373       O  0.25098073  0.70701288  0.70517223    -0.72570
O2374       O  0.25176887  0.76491310  0.70543343    -0.84710
Zr2375     Zr  0.32262197  0.73424286  0.65682152     2.26420
Zr2376     Zr  0.29013639  0.67687051  0.70280253     2.06270
Zr2377     Zr  0.29089754  0.79505222  0.70288297     2.10050
Zr2378     Zr  0.33486075  0.73619599  0.74545519     1.78760
O2379       O  0.26484271  0.83059867  0.67593040    -0.93510
O2380       O  0.35452193  0.69658783  0.77246519    -0.41320
O2381       O  0.32923259  0.76402884  0.70089359    -0.77950
O2382       O  0.32951843  0.70659690  0.70119325    -0.96640
O2383       O  0.28382595  0.70444861  0.65812194    -0.89940
O2384       O  0.28448393  0.76528778  0.65931355    -0.92790
C2385       C  0.30023774  0.74369188  0.81242003     1.00970
C2386       C  0.24245580  0.80423942  0.76609518     1.13900
C2387       C  0.24240218  0.66378795  0.75673601     1.04680
O2388       O  0.31643562  0.64234466  0.73103368    -0.94940
O2389       O  0.32114534  0.65187301  0.66860805    -0.90680
O2390       O  0.33995541  0.68739777  0.64181753    -0.83830
C2391       C  0.33789968  0.66118102  0.64895416     1.11320
O2392       O  0.19764570  0.73041754  0.67413613    -0.96910
Zr2393     Zr  0.24564262  0.73546978  0.66132835     1.88940
O2394       O  0.30309094  0.73576769  0.60624420    -0.73560
O2395       O  0.26254835  0.64437209  0.67190960    -0.52820
O2396       O  0.22372816  0.69665324  0.63367773    -0.97500
O2397       O  0.21904157  0.77585613  0.64499161    -0.54720
O2398       O  0.25692065  0.74098170  0.60880598    -0.74080
C2399       C  0.27935799  0.74019808  0.59440371     0.98260
O2400       O  0.37176522  0.74084411  0.65748492    -0.62900
O2401       O  0.31766473  0.83136728  0.72920379    -0.57700
O2402       O  0.33952418  0.77532093  0.63082462    -0.94390
O2403       O  0.32490111  0.81084464  0.66211168    -0.92810
O2404       O  0.36247516  0.77585541  0.76335904    -0.93170
O2405       O  0.38321768  0.73304720  0.73341790    -0.91950
C2406       C  0.33903954  0.80135552  0.63878839     1.17110
H2407       H  0.29786328  0.77908690  0.76448251     0.33050
H2408       H  0.34578246  0.69530594  0.69947306     0.43900
H2409       H  0.28343493  0.77705373  0.64164707     0.37430
H2410       H  0.23448025  0.69606223  0.70682986     0.33910
H2411       H  0.36746042  0.70516905  0.78748310     0.25700
H2412       H  0.26530513  0.62590700  0.68147522     0.31630
H2413       H  0.23892817  0.68588909  0.62459903     0.37540
H2414       H  0.37116974  0.76950881  0.78256005     0.32000
H2415       H  0.30507021  0.84751939  0.73092632     0.30880
H2416       H  0.27710067  0.84713136  0.67577699     0.32560
H2417       H  0.20944314  0.76943054  0.62611566     0.31530
H2418       H  0.38627883  0.71325736  0.72725006     0.35530
H2419       H  0.37498626  0.75801526  0.66998982     0.28260
H2420       H  0.20384390  0.74555325  0.77127384     0.32490
H2421       H  0.19372413  0.74653121  0.68787124     0.35340
H2422       H  0.31987462  0.82465784  0.75031760     0.27950
H2423       H  0.37850308  0.72569407  0.67076895     0.40830
H2424       H  0.31610537  0.64908576  0.75246765     0.30880
H2425       H  0.33949642  0.68928466  0.78493558     0.38500
H2426       H  0.23271573  0.78955138  0.63801158     0.30350
H2427       H  0.24339208  0.64936517  0.67640711     0.30410
H2428       H  0.20092856  0.72751244  0.74086598     0.30680
Zr2429     Zr  0.61378088  0.91278519  0.67952988     2.17510
O2430       O  0.57862118  0.92339102  0.64151475    -0.51680
O2431       O  0.59152246  0.94875561  0.71021888    -0.74880
O2432       O  0.57609068  0.88232767  0.68976960    -0.81670
O2433       O  0.65400016  0.96771082  0.65516110    -0.83410
O2434       O  0.58778894  0.83943139  0.70831404    -0.79040
O2435       O  0.62561973  0.93829675  0.63263731    -0.90670
O2436       O  0.60870595  0.94650546  0.75824856    -0.76640
O2437       O  0.61925725  0.88881324  0.72677861    -0.86130
O2438       O  0.64601030  0.94030917  0.70790728    -0.85820
O2439       O  0.62682137  0.86452801  0.66947061    -0.72570
O2440       O  0.65438865  0.90995975  0.65134021    -0.84710
Zr2441     Zr  0.70820933  0.86816371  0.70716781     2.26420
Zr2442     Zr  0.63670736  0.84217342  0.71776184     2.06270
Zr2443     Zr  0.68692432  0.93784446  0.67916694     2.10050
Zr2444     Zr  0.65095275  0.91666348  0.75455879     1.78760
O2445       O  0.72086196  0.94432964  0.63977920    -0.93510
O2446       O  0.62524141  0.89595103  0.79564639    -0.41320
O2447       O  0.69196516  0.91308166  0.72481942    -0.77950
O2448       O  0.67037267  0.87066990  0.74290534    -0.96640
O2449       O  0.67411748  0.84018241  0.68335712    -0.89940
O2450       O  0.70069236  0.89162923  0.66150005    -0.92790
C2451       C  0.59086949  0.95568019  0.73861933     1.00970
C2452       C  0.64311600  0.95830559  0.63086572     1.13900
C2453       C  0.57057472  0.85729022  0.69792462     1.04680
O2454       O  0.61720148  0.83124870  0.76687782    -0.94940
O2455       O  0.66885359  0.80987069  0.74489153    -0.90680
O2456       O  0.70999846  0.83147185  0.74201523    -0.83830
C2457       C  0.69483650  0.81163704  0.75065452     1.11320
O2458       O  0.63486045  0.87857956  0.59590815    -0.96910
Zr2459     Zr  0.66550078  0.86358204  0.63681507     1.88940
O2460       O  0.72774925  0.83478225  0.66730317    -0.73560
O2461       O  0.62810322  0.79555780  0.69622803    -0.52820
O2462       O  0.63857296  0.82401798  0.61719890    -0.97500
O2463       O  0.69274495  0.87634508  0.59302927    -0.54720
O2464       O  0.69767680  0.82628994  0.62861810    -0.74080
C2465       C  0.72023612  0.82141368  0.64236843     0.98260
O2466       O  0.75576376  0.85854622  0.72016885    -0.62900
O2467       O  0.69274774  0.98556751  0.69983091    -0.57700
O2468       O  0.74085017  0.90480854  0.72127099    -0.94390
O2469       O  0.72737644  0.94806888  0.70770217    -0.92810
O2470       O  0.66975947  0.96146208  0.77213016    -0.93170
O2471       O  0.67801565  0.91413128  0.80147487    -0.91950
C2472       C  0.74421164  0.93152655  0.72028209     1.17110
H2473       H  0.64070856  0.95963184  0.71095644     0.33050
H2474       H  0.67530708  0.86286134  0.76237118     0.43900
H2475       H  0.71742180  0.89175490  0.65017183     0.37430
H2476       H  0.61220800  0.85479787  0.65869963     0.33910
H2477       H  0.62316446  0.91135039  0.81083174     0.25700
H2478       H  0.61104796  0.78913654  0.70575729     0.31630
H2479       H  0.64838833  0.81730072  0.59894317     0.37540
H2480       H  0.65834146  0.96701894  0.78961489     0.32000
H2481       H  0.67544150  0.99567356  0.69593248     0.30880
H2482       H  0.71453891  0.93263950  0.62219875     0.32560
H2483       H  0.68976838  0.86089496  0.57799826     0.31530
H2484       H  0.69641410  0.90835955  0.79475300     0.35530
H2485       H  0.75687499  0.86106272  0.74254133     0.28260
H2486       H  0.56161121  0.91516546  0.64892449     0.32490
H2487       H  0.63930219  0.86678344  0.57790961     0.35340
H2488       H  0.69316528  0.98367614  0.72225666     0.27950
H2489       H  0.75834297  0.83817260  0.71662269     0.40830
H2490       H  0.60045614  0.84278764  0.76814704     0.30880
H2491       H  0.60659193  0.89312757  0.78708501     0.38500
H2492       H  0.71204098  0.87423440  0.59964653     0.30350
H2493       H  0.62296226  0.79887121  0.67470143     0.30410
H2494       H  0.58304207  0.91127768  0.62376615     0.30680
Zr2495     Zr  0.96046141  0.91658188  0.70763433     2.17510
O2496       O  0.97655567  0.91541179  0.76072635    -0.51680
O2497       O  0.98339778  0.95233301  0.67898352    -0.74880
O2498       O  0.99191340  0.89288905  0.67389954    -0.81670
O2499       O  0.92477549  0.94676174  0.71797524    -0.83410
O2500       O  0.99903821  0.84805081  0.68013475    -0.79040
O2501       O  0.95918777  0.95655589  0.74449894    -0.90670
O2502       O  0.96655556  0.94592625  0.63091404    -0.76640
O2503       O  0.95838779  0.89005482  0.66092743    -0.86130
O2504       O  0.92363350  0.93906576  0.67870275    -0.85820
O2505       O  0.95521247  0.86632495  0.71685297    -0.72570
O2506       O  0.91890456  0.90605660  0.73387750    -0.84710
Zr2507     Zr  0.87377772  0.85420672  0.67349417     2.26420
Zr2508     Zr  0.95016298  0.84037097  0.66850114     2.06270
Zr2509     Zr  0.88241789  0.92763582  0.70596533     2.10050
Zr2510     Zr  0.92490921  0.91349453  0.63252426     1.78760
O2511       O  0.85678859  0.93883316  0.75176857    -0.93510
O2512       O  0.95190848  0.89720803  0.58960505    -0.41320
O2513       O  0.88263266  0.90265351  0.65900284    -0.77950
O2514       O  0.91413957  0.86475574  0.64234662    -0.96640
O2515       O  0.91084941  0.83222795  0.69939287    -0.89940
O2516       O  0.87817062  0.87944404  0.72015100    -0.92790
C2517       C  0.98393005  0.95726518  0.65040397     1.00970
C2518       C  0.93377706  0.95946126  0.74084667     1.13900
C2519       C  0.00743979  0.87337372  0.68272083     1.04680
O2520       O  0.96584084  0.83220538  0.61677801    -0.94940
O2521       O  0.91997552  0.79857706  0.65522727    -0.90680
O2522       O  0.88665182  0.82336395  0.63481160    -0.83830
C2523       C  0.89622573  0.80021097  0.64207250     1.11320
O2524       O  0.94516577  0.86207984  0.79098932    -0.96910
Zr2525     Zr  0.91544866  0.85741477  0.74618053     1.88940
O2526       O  0.85722654  0.81780381  0.71187298    -0.73560
O2527       O  0.97240412  0.79758543  0.68566058    -0.52820
O2528       O  0.94419112  0.81657714  0.75522352    -0.97500
O2529       O  0.89061141  0.87260925  0.79130168    -0.54720
O2530       O  0.88347119  0.81968771  0.75502412    -0.74080
C2531       C  0.86337149  0.80949213  0.73958711     0.98260
O2532       O  0.83825756  0.85227290  0.63356032    -0.62900
O2533       O  0.85928819  0.97052966  0.69077527    -0.57700
O2534       O  0.82830568  0.87026326  0.68361816    -0.94390
O2535       O  0.84983664  0.90764114  0.67141308    -0.92810
O2536       O  0.90192155  0.95622536  0.61662949    -0.93170
O2537       O  0.89932418  0.90851892  0.58473113    -0.91950
C2538       C  0.82915992  0.89669254  0.68327987     1.17110
H2539       H  0.92580460  0.95821028  0.67123987     0.33050
H2540       H  0.91341592  0.85777370  0.62157254     0.43900
H2541       H  0.86254785  0.87717858  0.73243697     0.37430
H2542       H  0.97092342  0.85951378  0.72804943     0.33910
H2543       H  0.95555808  0.91427373  0.57775976     0.25700
H2544       H  0.98774969  0.79447376  0.67158327     0.31630
H2545       H  0.93433239  0.80532198  0.77030725     0.37540
H2546       H  0.91678233  0.96856803  0.60967178     0.32000
H2547       H  0.85658437  0.98233225  0.70912801     0.30880
H2548       H  0.84199447  0.95169967  0.74549006     0.32560
H2549       H  0.87480472  0.85976258  0.79272377     0.31530
H2550       H  0.88333129  0.89684684  0.58980965     0.35530
H2551       H  0.84253715  0.86813027  0.62013948     0.28260
H2552       H  0.99377477  0.92559612  0.76524323     0.32490
H2553       H  0.93776008  0.84895016  0.80605004     0.35340
H2554       H  0.87245441  0.98066179  0.67809599     0.27950
H2555       H  0.84095717  0.83543074  0.62056082     0.40830
H2556       H  0.98428901  0.84073458  0.61655735     0.30880
H2557       H  0.96987674  0.89226742  0.59866933     0.38500
H2558       H  0.88241340  0.89081059  0.78568465     0.30350
H2559       H  0.98114764  0.80255622  0.70551563     0.30410
H2560       H  0.97922923  0.89556341  0.76579309     0.30680
Zr2561     Zr  0.60480519  0.58920206  0.95814554     2.17510
O2562       O  0.56932474  0.57910555  0.49254777    -0.51680
O2563       O  0.57865937  0.55086670  0.93491976    -0.74880
O2564       O  0.57271189  0.62003598  0.93210880    -0.81670
O2565       O  0.65846645  0.54709831  0.00599262    -0.83410
O2566       O  0.58367910  0.66494138  0.93660397    -0.79040
O2567       O  0.61884867  0.57166981  0.00911473    -0.90670
O2568       O  0.59485281  0.54390783  0.88772629    -0.76640
O2569       O  0.60875192  0.60998748  0.90964819    -0.86130
O2570       O  0.63341663  0.55640083  0.93321518    -0.85820
O2571       O  0.62032277  0.63705577  0.96710711    -0.72570
O2572       O  0.64742328  0.59255190  0.98135121    -0.84710
Zr2573     Zr  0.69973596  0.62666982  0.92632487     2.26420
Zr2574     Zr  0.62906443  0.65613911  0.91685467     2.06270
Zr2575     Zr  0.67658000  0.55978943  0.95879636     2.10050
Zr2576     Zr  0.63653560  0.57667932  0.88474070     1.78760
O2577       O  0.70965307  0.53901208  0.49353903    -0.93510
O2578       O  0.60548369  0.59303602  0.84487477    -0.41320
O2579       O  0.68081512  0.58105720  0.91115896    -0.77950
O2580       O  0.65870196  0.62257920  0.89331888    -0.96640
O2581       O  0.66883191  0.65827563  0.94958411    -0.89940
O2582       O  0.69316893  0.60575871  0.97374498    -0.92790
C2583       C  0.57748811  0.53798391  0.90904952     1.00970
C2584       C  0.63802240  0.55614514  0.02065011     1.13900
C2585       C  0.56689433  0.64490949  0.94075252     1.04680
O2586       O  0.61268988  0.65639587  0.86422388    -0.94940
O2587       O  0.66624443  0.68951758  0.90340345    -0.90680
O2588       O  0.69748163  0.65906977  0.88700851    -0.83830
C2589       C  0.68944284  0.68378767  0.89123356     1.11320
O2590       O  0.63607127  0.62243809  0.54184102    -0.96910
Zr2591     Zr  0.66120332  0.63746221  0.99743395     1.88940
O2592       O  0.72267504  0.66239119  0.96365853    -0.73560
O2593       O  0.61522796  0.70516265  0.91338788    -0.52820
O2594       O  0.63536270  0.67733736  0.51687824    -0.97500
O2595       O  0.69238204  0.62871457  0.54007351    -0.54720
O2596       O  0.69342132  0.67499294  0.00089918    -0.74080
C2597       C  0.71641155  0.67714995  0.98815928     0.98260
O2598       O  0.73931456  0.62244925  0.89300492    -0.62900
O2599       O  0.67046774  0.51010215  0.94604356    -0.57700
O2600       O  0.73721273  0.59623674  0.93787040    -0.94390
O2601       O  0.71779675  0.55377411  0.93175322    -0.92810
O2602       O  0.65669562  0.53255913  0.86795710    -0.93170
O2603       O  0.65697445  0.57781865  0.83455577    -0.91950
C2604       C  0.73838093  0.56962799  0.93526399     1.17110
H2605       H  0.62672487  0.53739179  0.93306086     0.33050
H2606       H  0.66234975  0.62882936  0.87297600     0.43900
H2607       H  0.70995394  0.60462391  0.98549359     0.37430
H2608       H  0.60727650  0.64724009  0.97910373     0.33910
H2609       H  0.60132153  0.57611580  0.83225879     0.25700
H2610       H  0.59757594  0.70511095  0.90205502     0.31630
H2611       H  0.64662579  0.68504029  0.53398572     0.37540
H2612       H  0.64117034  0.52155474  0.85930533     0.32000
H2613       H  0.65401606  0.50404210  0.95702017     0.30880
H2614       H  0.71543223  0.52139290  0.98338584     0.32560
H2615       H  0.69039599  0.64517019  0.55390095     0.31530
H2616       H  0.67577891  0.58484760  0.83841251     0.35530
H2617       H  0.73495019  0.60618024  0.87946635     0.28260
H2618       H  0.55355305  0.58464068  0.48001414     0.32490
H2619       H  0.63976963  0.63674031  0.55797643     0.35340
H2620       H  0.66530702  0.50919027  0.92416518     0.27950
H2621       H  0.73981181  0.63839254  0.87893842     0.40830
H2622       H  0.59253726  0.65586262  0.86574501     0.30880
H2623       H  0.58814008  0.59719941  0.85531234     0.38500
H2624       H  0.71104061  0.63055526  0.53196803     0.30350
H2625       H  0.61077232  0.71120049  0.93441581     0.30410
H2626       H  0.57165903  0.59332875  0.50888725     0.30680
Zr2627     Zr  0.98380244  0.58422389  0.93473604     2.17510
O2628       O  0.02174612  0.55977410  0.91110834    -0.51680
O2629       O  0.00742905  0.54801259  0.96436499    -0.74880
O2630       O  0.01190216  0.61659546  0.96520472    -0.81670
O2631       O  0.93254800  0.55996347  0.87124615    -0.83410
O2632       O  0.99998502  0.66113040  0.96236144    -0.79040
O2633       O  0.97616185  0.57564768  0.87843572    -0.90670
O2634       O  0.98346227  0.54100735  0.50723071    -0.76640
O2635       O  0.97277298  0.60325783  0.98351349    -0.86130
O2636       O  0.95156453  0.55135279  0.95283909    -0.85820
O2637       O  0.96664014  0.63152278  0.92622974    -0.72570
O2638       O  0.94238126  0.59023401  0.91030965    -0.84710
Zr2639     Zr  0.88317587  0.61970824  0.95576242     2.26420
Zr2640     Zr  0.95334717  0.64947445  0.97623696     2.06270
Zr2641     Zr  0.91212093  0.55501015  0.92000313     2.10050
Zr2642     Zr  0.94080567  0.57033127  0.50161485     1.78760
O2643       O  0.88989741  0.52931666  0.87807835    -0.93510
O2644       O  0.96267719  0.58722265  0.54873409    -0.41320
O2645       O  0.90056081  0.57357478  0.96847783    -0.77950
O2646       O  0.92022831  0.61631444  0.49331284    -0.96640
O2647       O  0.91643983  0.65206110  0.93979363    -0.89940
O2648       O  0.89414363  0.60067359  0.90801948    -0.92790
C2649       C  0.00460314  0.53635325  0.99035095     1.00970
C2650       C  0.95590240  0.56693991  0.86103606     1.13900
C2651       C  0.01745808  0.64167603  0.95808603     1.04680
O2652       O  0.97407152  0.65398922  0.52688947    -0.94940
O2653       O  0.91688921  0.67396658  0.50492544    -0.90680
O2654       O  0.87859813  0.66524469  0.47680991    -0.83830
C2655       C  0.89116102  0.67713052  0.49899789     1.11320
O2656       O  0.95799665  0.62799301  0.84835913    -0.96910
Zr2657     Zr  0.92802172  0.63374525  0.89161215     1.88940
O2658       O  0.85942068  0.65113327  0.91722794    -0.73560
O2659       O  0.95708751  0.69988102  0.96901052    -0.52820
O2660       O  0.94916550  0.67937601  0.88458610    -0.97500
O2661       O  0.90436956  0.62041511  0.84431048    -0.54720
O2662       O  0.89140279  0.66687804  0.88498858    -0.74080
C2663       C  0.86716396  0.66726880  0.89513903     0.98260
O2664       O  0.84879800  0.62020556  0.49541081    -0.62900
O2665       O  0.92554555  0.50663507  0.92758620    -0.57700
O2666       O  0.84735528  0.58634003  0.94452924    -0.94390
O2667       O  0.86680631  0.54416414  0.93393974    -0.92810
O2668       O  0.92215178  0.52380537  0.51012674    -0.93170
O2669       O  0.91175316  0.56873847  0.54610433    -0.91950
C2670       C  0.84653998  0.55976830  0.93963633     1.17110
H2671       H  0.95906402  0.53271132  0.95396151     0.33050
H2672       H  0.91337551  0.62245285  0.51281391     0.43900
H2673       H  0.87822617  0.59936130  0.89481536     0.37430
H2674       H  0.98008182  0.64269953  0.91650756     0.33910
H2675       H  0.96618414  0.57011590  0.56066759     0.25700
H2676       H  0.97216892  0.70606349  0.98285107     0.31630
H2677       H  0.94008216  0.68707146  0.86623481     0.37540
H2678       H  0.93272445  0.51669068  0.52778296     0.32000
H2679       H  0.90831606  0.49645550  0.93135984     0.30880
H2680       H  0.88266583  0.51188121  0.88688937     0.32560
H2681       H  0.90551947  0.63729253  0.83153974     0.31530
H2682       H  0.89369382  0.57527828  0.53866582     0.35530
H2683       H  0.84704732  0.60041734  0.50146766     0.28260
H2684       H  0.03821662  0.56440356  0.92349219     0.32490
H2685       H  0.95574964  0.64513092  0.83615533     0.35340
H2686       H  0.93084739  0.50080043  0.90682111     0.27950
H2687       H  0.85775652  0.62929806  0.51337346     0.40830
H2688       H  0.99318152  0.64771406  0.52436571     0.30880
H2689       H  0.98106639  0.59355841  0.54273615     0.38500
H2690       H  0.88473905  0.61916457  0.84911147     0.30350
H2691       H  0.96437964  0.70191311  0.94825178     0.30410
H2692       H  0.02436864  0.56838594  0.89114931     0.30680
Zr2693     Zr  0.78143776  0.71247395  0.87310394     2.17510
O2694       O  0.77398586  0.67206924  0.90549348    -0.51680
O2695       O  0.78930116  0.73394020  0.92202803    -0.74880
O2696       O  0.82231064  0.68590562  0.88690367    -0.81670
O2697       O  0.70048794  0.72629878  0.86761857    -0.83410
O2698       O  0.85650381  0.70422436  0.85873562    -0.79040
O2699       O  0.73445726  0.69724235  0.88299594    -0.90670
O2700       O  0.79692515  0.78064665  0.91996868    -0.76640
O2701       O  0.81436308  0.74902351  0.86759186    -0.86130
O2702       O  0.75551812  0.75452677  0.87220735    -0.85820
O2703       O  0.80621762  0.70142404  0.82737941    -0.72570
O2704       O  0.75031776  0.70654194  0.83097190    -0.84710
Zr2705     Zr  0.78026221  0.77431742  0.77766967     2.26420
Zr2706     Zr  0.83829649  0.73968070  0.82085795     2.06270
Zr2707     Zr  0.72491784  0.74982572  0.82874906     2.10050
Zr2708     Zr  0.78824258  0.79095795  0.86645646     1.78760
O2709       O  0.68830711  0.72120092  0.80642294    -0.93510
O2710       O  0.83089512  0.81498704  0.87967267    -0.41320
O2711       O  0.75730382  0.78660800  0.82346581    -0.77950
O2712       O  0.81164459  0.78164622  0.81971720    -0.96640
O2713       O  0.80708148  0.73298388  0.77923028    -0.89940
O2714       O  0.74816945  0.73776285  0.78295314    -0.92790
C2715       C  0.79540897  0.75755305  0.93438394     1.00970
C2716       C  0.70906739  0.70453347  0.88101770     1.13900
C2717       C  0.84748728  0.68723305  0.87947466     1.04680
O2718       O  0.87697634  0.76389028  0.84496941    -0.94940
O2719       O  0.85440027  0.77396114  0.77933290    -0.90680
O2720       O  0.81931699  0.79128520  0.75044050    -0.83830
C2721       C  0.84483867  0.78949816  0.75690971     1.11320
O2722       O  0.76575104  0.64959308  0.80529942    -0.96910
Zr2723     Zr  0.77493077  0.69608552  0.78539338     1.88940
O2724       O  0.78169380  0.75209679  0.72809592    -0.73560
O2725       O  0.86970827  0.71108295  0.79128174    -0.52820
O2726       O  0.81096714  0.66417980  0.76931402    -0.97500
O2727       O  0.73508995  0.67550874  0.75943003    -0.54720
O2728       O  0.78070426  0.70458387  0.73147769    -0.74080
C2729       C  0.78276672  0.72726341  0.71643383     0.98260
O2730       O  0.77892689  0.82474164  0.77354073    -0.62900
O2731       O  0.69726302  0.78556972  0.85373668    -0.57700
O2732       O  0.73588686  0.78915066  0.75895689    -0.94390
O2733       O  0.70159285  0.77908312  0.79134455    -0.92810
O2734       O  0.75303125  0.81567480  0.89476230    -0.93170
O2735       O  0.78532326  0.84039329  0.85341780    -0.91950
C2736       C  0.71095875  0.79093601  0.76768477     1.17110
H2737       H  0.74549216  0.75707429  0.89082400     0.33050
H2738       H  0.82319756  0.79762231  0.81600611     0.43900
H2739       H  0.73562651  0.73662153  0.76578605     0.37430
H2740       H  0.81569667  0.68378293  0.82916225     0.33910
H2741       H  0.82659343  0.82668201  0.89780550     0.25700
H2742       H  0.88728048  0.71241644  0.80270026     0.31630
H2743       H  0.80364621  0.65483285  0.75060205     0.37540
H2744       H  0.76311742  0.82662067  0.91067210     0.32000
H2745       H  0.67831592  0.77832057  0.85218970     0.30880
H2746       H  0.67133947  0.73147856  0.81134187     0.32560
H2747       H  0.74270023  0.66175735  0.74472305     0.31530
H2748       H  0.80172397  0.84422710  0.84124955     0.35530
H2749       H  0.76131149  0.83026273  0.78261377     0.28260
H2750       H  0.78404389  0.67604445  0.92484079     0.32490
H2751       H  0.76694465  0.63643823  0.78769873     0.35340
H2752       H  0.70212965  0.78439184  0.87564784     0.27950
H2753       H  0.79243231  0.83092329  0.78921156     0.40830
H2754       H  0.87516421  0.76021289  0.86697620     0.30880
H2755       H  0.84303380  0.80010829  0.88757972     0.38500
H2756       H  0.72748725  0.69052421  0.74653123     0.30350
H2757       H  0.86348478  0.69156557  0.79427550     0.30410
H2758       H  0.78354263  0.65593806  0.89602894     0.30680
Zr2759     Zr  0.80368751  0.77102043  0.62511177     2.17510
O2760       O  0.81193782  0.80841935  0.66303042    -0.51680
O2761       O  0.79432294  0.74947131  0.67239074    -0.74880
O2762       O  0.76368031  0.79956784  0.63673383    -0.81670
O2763       O  0.88519478  0.75541170  0.62099273    -0.83410
O2764       O  0.72897952  0.78296640  0.60631863    -0.79040
O2765       O  0.85146429  0.78454908  0.63622569    -0.90670
O2766       O  0.78637313  0.70286767  0.66849556    -0.76640
O2767       O  0.76993596  0.73535740  0.61686625    -0.86130
O2768       O  0.82832581  0.72826165  0.62346067    -0.85820
O2769       O  0.77962295  0.78303749  0.57866178    -0.72570
O2770       O  0.83462722  0.77650997  0.58403157    -0.84710
Zr2771     Zr  0.80292725  0.70850244  0.52653953     2.26420
Zr2772     Zr  0.74654401  0.74582371  0.56967148     2.06270
Zr2773     Zr  0.85876581  0.73255829  0.58123630     2.10050
Zr2774     Zr  0.79484475  0.69263186  0.61482550     1.78760
O2775       O  0.89539579  0.76158501  0.56182645    -0.93510
O2776       O  0.75205853  0.66890801  0.62564637    -0.41320
O2777       O  0.82577349  0.69598281  0.57294955    -0.77950
O2778       O  0.77162676  0.70251577  0.56766584    -0.96640
O2779       O  0.77760538  0.75099882  0.52879857    -0.89940
O2780       O  0.83577527  0.74454947  0.53462447    -0.92790
C2781       C  0.78796877  0.72600128  0.68370741     1.00970
C2782       C  0.87694535  0.77752879  0.63441564     1.13900
C2783       C  0.73863160  0.79969336  0.62779119     1.04680
O2784       O  0.70734920  0.72339769  0.59260523    -0.94940
O2785       O  0.72839862  0.71270804  0.52735039    -0.90680
O2786       O  0.76209857  0.69197969  0.49983217    -0.83830
C2787       C  0.73682846  0.69581543  0.50547085     1.11320
O2788       O  0.82170775  0.83379298  0.55781178    -0.96910
Zr2789     Zr  0.81054462  0.78716517  0.53748953     1.88940
O2790       O  0.80112876  0.73182241  0.97834335    -0.73560
O2791       O  0.71607666  0.77483905  0.53924508    -0.52820
O2792       O  0.77497953  0.82001397  0.02220689    -0.97500
O2793       O  0.85107712  0.80574835  0.01311204    -0.54720
O2794       O  0.80364862  0.77922224  0.98305252    -0.74080
C2795       C  0.80067037  0.75653894  0.96730427     0.98260
O2796       O  0.80563312  0.65986082  0.50877440    -0.62900
O2797       O  0.88530285  0.69560091  0.60528915    -0.57700
O2798       O  0.84771429  0.69321151  0.51044230    -0.94390
O2799       O  0.88243268  0.70556708  0.54283852    -0.92810
O2800       O  0.82994671  0.66697188  0.64264160    -0.93170
O2801       O  0.79515654  0.64332249  0.59953280    -0.91950
C2802       C  0.87306930  0.69350995  0.51866860     1.17110
H2803       H  0.83834385  0.72537301  0.64228307     0.33050
H2804       H  0.75951537  0.68693512  0.56317654     0.43900
H2805       H  0.84839651  0.74552208  0.51800783     0.37430
H2806       H  0.77082101  0.80106030  0.58044759     0.33910
H2807       H  0.75597674  0.65798269  0.64419646     0.25700
H2808       H  0.69838816  0.77413367  0.54983891     0.31630
H2809       H  0.78199625  0.82898009  0.00370181     0.37540
H2810       H  0.81987263  0.65634815  0.65808686     0.32000
H2811       H  0.90453022  0.70189241  0.60397435     0.30880
H2812       H  0.91236359  0.75099819  0.56615960     0.32560
H2813       H  0.84401901  0.82010934  0.99898800     0.31530
H2814       H  0.79420682  0.64347561  0.57699574     0.35530
H2815       H  0.78979004  0.65006667  0.51750714     0.28260
H2816       H  0.80322434  0.80220711  0.68197276     0.32490
H2817       H  0.82025400  0.84666517  0.54039691     0.35340
H2818       H  0.88108506  0.69718875  0.62722480     0.27950
H2819       H  0.80197448  0.66011454  0.48652584     0.40830
H2820       H  0.70965219  0.72719561  0.61473474     0.30880
H2821       H  0.73970085  0.68405129  0.63256630     0.38500
H2822       H  0.85765227  0.79051674  0.99954129     0.30350
H2823       H  0.72275990  0.79423858  0.54285133     0.30410
H2824       H  0.80130365  0.82505903  0.65686332     0.30680
Zr2825     Zr  0.60818002  0.41897745  0.57915946     2.17510
O2826       O  0.60875113  0.45191641  0.53729005    -0.51680
O2827       O  0.57154899  0.43872104  0.60986187    -0.74880
O2828       O  0.56932601  0.41106035  0.54489471    -0.81670
O2829       O  0.66782716  0.46025687  0.60084338    -0.83410
O2830       O  0.56074520  0.37454142  0.57208988    -0.79040
O2831       O  0.62211958  0.46034733  0.60427287    -0.90670
O2832       O  0.58363336  0.42722281  0.65795014    -0.76640
O2833       O  0.58803762  0.38240842  0.60731308    -0.86130
O2834       O  0.63533562  0.41820231  0.62572211    -0.85820
O2835       O  0.61577888  0.37712011  0.54897851    -0.72570
O2836       O  0.65562040  0.41267484  0.56512782    -0.84710
Zr2837     Zr  0.66822854  0.33087733  0.60657537     2.26420
Zr2838     Zr  0.59635260  0.34040973  0.57832771     2.06270
Zr2839     Zr  0.68189722  0.41051404  0.61192051     2.10050
Zr2840     Zr  0.61391072  0.38375662  0.65325264     1.78760
O2841       O  0.72068846  0.43302495  0.58829082    -0.93510
O2842       O  0.57137421  0.36297595  0.67020179    -0.41320
O2843       O  0.66046584  0.37274631  0.63810583    -0.77950
O2844       O  0.62270163  0.34095532  0.62480339    -0.96640
O2845       O  0.64207732  0.33289557  0.56128648    -0.89940
O2846       O  0.68816698  0.36910889  0.58028555    -0.92790
C2847       C  0.56977608  0.44251453  0.63878550     1.00970
C2848       C  0.64435398  0.47308794  0.60101516     1.13900
C2849       C  0.55858428  0.38682653  0.54675689     1.04680
O2850       O  0.55497789  0.31328565  0.58511466    -0.94940
O2851       O  0.60153563  0.29875995  0.60660234    -0.90680
O2852       O  0.64475177  0.28641984  0.60032949    -0.83830
C2853       C  0.61919431  0.28157455  0.59730328     1.11320
O2854       O  0.64655280  0.39689888  0.99016785    -0.96910
Zr2855     Zr  0.66209732  0.37087193  0.53451557     1.88940
O2856       O  0.70411819  0.31366615  0.56737265    -0.73560
O2857       O  0.59371944  0.31387344  0.53044216    -0.52820
O2858       O  0.64637326  0.33793910  0.49489993    -0.97500
O2859       O  0.69809500  0.39993339  0.51380697    -0.54720
O2860       O  0.69952948  0.33868988  0.52393336    -0.74080
C2861       C  0.71087341  0.31897024  0.53899759     0.98260
O2862       O  0.67687330  0.29434119  0.64345525    -0.62900
O2863       O  0.69500104  0.43122192  0.66105422    -0.57700
O2864       O  0.69380744  0.34958099  0.64756586    -0.94390
O2865       O  0.72161640  0.38050509  0.62896401    -0.92810
O2866       O  0.63384109  0.40926829  0.69671762    -0.93170
O2867       O  0.62064278  0.35633426  0.69906508    -0.91950
C2868       C  0.71768730  0.35661208  0.64156200     1.17110
H2869       H  0.63534111  0.43316191  0.64085982     0.33050
H2870       H  0.61883199  0.32761051  0.64049523     0.43900
H2871       H  0.70728610  0.36639108  0.57609048     0.37430
H2872       H  0.60661657  0.37796390  0.52956527     0.33910
H2873       H  0.56540970  0.37543843  0.68707673     0.25700
H2874       H  0.57619690  0.30353530  0.53066029     0.31630
H2875       H  0.66140781  0.33684673  0.98010767     0.37540
H2876       H  0.61803227  0.41741951  0.70748834     0.32000
H2877       H  0.71488495  0.43465766  0.65960315     0.30880
H2878       H  0.72655682  0.44779792  0.60309906     0.32560
H2879       H  0.70548672  0.38881013  0.49658199     0.31530
H2880       H  0.63784076  0.34595139  0.69556069     0.35530
H2881       H  0.68601665  0.30335799  0.66126835     0.28260
H2882       H  0.62067959  0.46760364  0.54400617     0.32490
H2883       H  0.65669626  0.38901995  0.97268829     0.35340
H2884       H  0.68675186  0.45016427  0.66098503     0.27950
H2885       H  0.65885377  0.28952923  0.65194000     0.40830
H2886       H  0.54822158  0.31952360  0.60525671     0.30880
H2887       H  0.55796521  0.36636527  0.65355714     0.38500
H2888       H  0.71284102  0.39981145  0.52949507     0.29150
H2889       H  0.59174725  0.32779218  0.51414648     0.30410
H2890       H  0.61982806  0.44214361  0.52177510     0.30680
Zr2891     Zr  0.62945360  0.05695929  0.58227015     2.17510
O2892       O  0.63326980  0.02124827  0.62095201    -0.51680
O2893       O  0.59463247  0.03239096  0.55240620    -0.74880
O2894       O  0.59144322  0.06132800  0.61793899    -0.81670
O2895       O  0.69348405  0.02886437  0.53969466    -0.83410
O2896       O  0.57765638  0.09541819  0.58965895    -0.79040
O2897       O  0.65346623  0.01704901  0.56231242    -0.90670
O2898       O  0.58981865  0.05585970  0.00808482    -0.76640
O2899       O  0.60214065  0.09223679  0.55886279    -0.86130
O2900       O  0.64970230  0.06413999  0.53373443    -0.85820
O2901       O  0.63410500  0.09786143  0.61522225    -0.72570
O2902       O  0.67671114  0.07035633  0.59095317    -0.84710
Zr2903     Zr  0.67329100  0.15588373  0.55674302     2.26420
Zr2904     Zr  0.60834623  0.13400185  0.58995457     2.06270
Zr2905     Zr  0.69607074  0.08011653  0.54194899     2.10050
Zr2906     Zr  0.62209824  0.09735579  0.01066658     1.78760
O2907       O  0.73868519  0.06280586  0.56383986    -0.93510
O2908       O  0.57876986  0.11951071  0.99751325    -0.41320
O2909       O  0.66798353  0.11598074  0.52110102    -0.77950
O2910       O  0.62864380  0.13881650  0.54152539    -0.96640
O2911       O  0.65379911  0.14776664  0.60411677    -0.89940
O2912       O  0.70058209  0.11925208  0.57707724    -0.92790
C2913       C  0.58336517  0.03561491  0.52614302     1.00970
C2914       C  0.67569429  0.01091230  0.54853407     1.13900
C2915       C  0.57632451  0.08286713  0.61465082     1.04680
O2916       O  0.56722824  0.16231214  0.59560026    -0.94940
O2917       O  0.59744386  0.17583784  0.56299908    -0.90680
O2918       O  0.63811727  0.19166325  0.54707813    -0.83830
C2919       C  0.61192861  0.19373962  0.54940550     1.11320
O2920       O  0.67406129  0.07617229  0.66505140    -0.96910
Zr2921     Zr  0.68072665  0.11023987  0.62496226     1.88940
O2922       O  0.70580292  0.17728329  0.59731292    -0.73560
O2923       O  0.60784355  0.15185818  0.64250384    -0.52820
O2924       O  0.66629280  0.13425610  0.67139197    -0.97500
O2925       O  0.72373925  0.08714818  0.63761260    -0.54720
O2926       O  0.71312852  0.14779240  0.63654297    -0.74080
C2927       C  0.71757006  0.17105623  0.62334881     0.98260
O2928       O  0.69282903  0.20020450  0.04200267    -0.62900
O2929       O  0.70789296  0.06722342  0.98991584    -0.57700
O2930       O  0.69691849  0.14660015  0.01113993    -0.94390
O2931       O  0.72870758  0.11505687  0.52194509    -0.92810
O2932       O  0.63913814  0.07136986  0.96668353    -0.93170
O2933       O  0.62274798  0.12402094  0.96384746    -0.91950
C2934       C  0.72166322  0.13927868  0.01194997     1.17110
H2935       H  0.64854013  0.04807172  0.52013642     0.33050
H2936       H  0.62011487  0.15023009  0.02626094     0.43900
H2937       H  0.71947439  0.12485322  0.57947962     0.37430
H2938       H  0.62667948  0.09424802  0.63495079     0.33910
H2939       H  0.56857004  0.10511062  0.98544445     0.25700
H2940       H  0.58902077  0.15809315  0.64671039     0.31630
H2941       H  0.68275761  0.13497803  0.68477488     0.37540
H2942       H  0.62290448  0.06162079  0.95787732     0.32000
H2943       H  0.72425503  0.05519543  0.99204720     0.30880
H2944       H  0.74868586  0.05486478  0.54628803     0.32560
H2945       H  0.73051269  0.09681781  0.65638524     0.31530
H2946       H  0.63667544  0.13878404  0.96775714     0.35530
H2947       H  0.68096698  0.20569929  0.02477230     0.28260
H2948       H  0.61464295  0.01348187  0.62309368     0.32490
H2949       H  0.68636617  0.08209146  0.68208195     0.35340
H2950       H  0.69320544  0.05423133  0.98293687     0.27950
H2951       H  0.68827164  0.21351824  0.05865897     0.40830
H2952       H  0.55533819  0.15775709  0.57770541     0.30880
H2953       H  0.56890696  0.12093420  0.01699325     0.38500
H2954       H  0.73651592  0.09300322  0.62165434     0.30350
H2955       H  0.61075475  0.13558740  0.65579948     0.30410
H2956       H  0.63703843  0.03168500  0.64021763     0.30680
Zr2957     Zr  0.94554494  0.05486940  0.81350721     2.17510
O2958       O  0.95756162  0.01569485  0.78089794    -0.51680
O2959       O  0.97749661  0.03041652  0.84608257    -0.74880
O2960       O  0.98331731  0.05327785  0.77770289    -0.81670
O2961       O  0.87047539  0.04253430  0.82375175    -0.83410
O2962       O  0.99834385  0.08467250  0.80937117    -0.79040
O2963       O  0.91127817  0.02086582  0.82694334    -0.90670
O2964       O  0.98626585  0.05568275  0.88886934    -0.76640
O2965       O  0.97526008  0.08792006  0.83793127    -0.86130
O2966       O  0.92507775  0.06553976  0.86155524    -0.85820
O2967       O  0.94490853  0.09371326  0.77868670    -0.72570
O2968       O  0.90041999  0.07319642  0.80205783    -0.84710
Zr2969     Zr  0.91055337  0.15840268  0.83452513     2.26420
Zr2970     Zr  0.97358299  0.12734251  0.80520438     2.06270
Zr2971     Zr  0.88100354  0.08657514  0.85057416     2.10050
Zr2972     Zr  0.95522454  0.09841255  0.88485432     1.78760
O2973       O  0.83215762  0.07688727  0.84726033    -0.93510
O2974       O  0.99927806  0.11871048  0.89947244    -0.41320
O2975       O  0.91177402  0.12081717  0.87167403    -0.77950
O2976       O  0.95350076  0.13959704  0.85256166    -0.96640
O2977       O  0.93039319  0.14552883  0.78851109    -0.89940
O2978       O  0.88027452  0.12375554  0.81462807    -0.92790
C2979       C  0.99020624  0.03363150  0.87156888     1.00970
C2980       C  0.88590466  0.02111518  0.81961252     1.13900
C2981       C  0.00107668  0.07192411  0.78428587     1.04680
O2982       O  0.01919495  0.14739116  0.81005553    -0.94940
O2983       O  0.98635897  0.17297567  0.81979490    -0.90680
O2984       O  0.94411374  0.19054753  0.81477905    -0.83830
C2985       C  0.97027264  0.19251342  0.81299834     1.11320
O2986       O  0.90314278  0.07621651  0.72649427    -0.96910
Zr2987     Zr  0.90000601  0.11128615  0.76720531     1.88940
O2988       O  0.87710566  0.18057509  0.79716221    -0.73560
O2989       O  0.98001921  0.14256907  0.75309810    -0.52820
O2990       O  0.91892747  0.13429062  0.72308208    -0.97500
O2991       O  0.85513612  0.09361618  0.75184979    -0.54720
O2992       O  0.86959842  0.15089571  0.75706919    -0.74080
C2993       C  0.86496312  0.17406389  0.77129934     0.98260
O2994       O  0.91578311  0.20205730  0.86380444    -0.62900
O2995       O  0.87802407  0.06279705  0.89911679    -0.57700
O2996       O  0.87352221  0.16630110  0.86649887    -0.94390
O2997       O  0.85327566  0.12441926  0.87560995    -0.92810
O2998       O  0.93483198  0.07443366  0.92751940    -0.93170
O2999       O  0.95411572  0.12562569  0.93219987    -0.91950
C3000       C  0.85504386  0.15151950  0.87827419     1.17110
H3001       H  0.92362329  0.04901546  0.87387597     0.33050
H3002       H  0.96354946  0.15426645  0.86325230     0.43900
H3003       H  0.86183320  0.13062261  0.81224052     0.37430
H3004       H  0.95254573  0.08845780  0.75934505     0.33910
H3005       H  0.00651503  0.10629370  0.91554338     0.25700
H3006       H  0.99985898  0.14540880  0.75088700     0.31630
H3007       H  0.90301032  0.13800731  0.70956063     0.37540
H3008       H  0.94961513  0.06247154  0.93577448     0.32000
H3009       H  0.86453710  0.07379549  0.91086113     0.30880
H3010       H  0.82723807  0.07023258  0.86770299     0.32560
H3011       H  0.85012384  0.10386519  0.73314418     0.31530
H3012       H  0.94221652  0.14180589  0.92748019     0.35530
H3013       H  0.89918646  0.21317433  0.85926070     0.28260
H3014       H  0.95141900  0.99905969  0.79197208     0.32490
H3015       H  0.89408989  0.08461576  0.70851010     0.35340
H3016       H  0.86863919  0.04485349  0.89413243     0.27950
H3017       H  0.91427578  0.19684270  0.88545090     0.40830
H3018       H  0.02571907  0.14241200  0.83077702     0.30880
H3019       H  0.01106624  0.11494587  0.88175532     0.38500
H3020       H  0.84253666  0.10088991  0.76751287     0.30350
H3021       H  0.97495320  0.12675320  0.73937128     0.30410
H3022       H  0.94555846  0.01752563  0.76279285     0.30680
Zr3023     Zr  0.95095713  0.43028230  0.85330714     2.17510
O3024       O  0.95199495  0.45383550  0.90306312    -0.51680
O3025       O  0.98325731  0.45364421  0.81847725    -0.74880
O3026       O  0.99466162  0.42072882  0.87812985    -0.81670
O3027       O  0.90258039  0.46885032  0.80727200    -0.83410
O3028       O  0.98279249  0.38080613  0.90137444    -0.79040
O3029       O  0.92240328  0.47005083  0.85328517    -0.90670
O3030       O  0.98824697  0.42655728  0.77628937    -0.76640
O3031       O  0.97269954  0.39009335  0.83309497    -0.86130
O3032       O  0.93258511  0.42569013  0.80243734    -0.85820
O3033       O  0.93661656  0.39402312  0.88642769    -0.72570
O3034       O  0.90177952  0.42577262  0.85599762    -0.84710
Zr3035     Zr  0.89497866  0.34102592  0.82358414     2.26420
Zr3036     Zr  0.95846522  0.35333965  0.86550627     2.06270
Zr3037     Zr  0.88355353  0.41901403  0.80535408     2.10050
Zr3038     Zr  0.95513768  0.38665369  0.78240438     1.78760
O3039       O  0.84309276  0.44242215  0.82475971    -0.93510
O3040       O  0.99913206  0.36504064  0.77205414    -0.41320
O3041       O  0.90668160  0.37780165  0.78794927    -0.77950
O3042       O  0.94304154  0.34791453  0.81451484    -0.96640
O3043       O  0.91093736  0.34804473  0.87340294    -0.89940
O3044       O  0.87107888  0.38205326  0.83971695    -0.92790
C3045       C  0.99422396  0.44877910  0.79247051     1.00970
C3046       C  0.91776106  0.48139123  0.82804495     1.13900
C3047       C  0.99916714  0.40064290  0.89652240     1.04680
O3048       O  0.00145341  0.33918005  0.84318245    -0.94940
O3049       O  0.95225628  0.30356213  0.86115617    -0.90680
O3050       O  0.92354751  0.30020713  0.82107583    -0.83830
C3051       C  0.94329135  0.29086608  0.83734002     1.11320
O3052       O  0.89299603  0.42441785  0.93138703    -0.96910
Zr3053     Zr  0.88839743  0.38984094  0.89009934     1.88940
O3054       O  0.86149414  0.32435340  0.86151010    -0.73560
O3055       O  0.97221691  0.32608431  0.90970331    -0.52820
O3056       O  0.90100210  0.36617998  0.93712152    -0.97500
O3057       O  0.84690428  0.41702540  0.89789589    -0.54720
O3058       O  0.85334471  0.35571093  0.89939618    -0.74080
C3059       C  0.84942074  0.33199200  0.88631183     0.98260
O3060       O  0.87052134  0.29782228  0.81189385    -0.62900
O3061       O  0.87170558  0.43753918  0.75555533    -0.57700
O3062       O  0.87804670  0.34756857  0.77382626    -0.94390
O3063       O  0.85061145  0.38449445  0.77830804    -0.92810
O3064       O  0.93913365  0.40828689  0.73551915    -0.93170
O3065       O  0.95325043  0.35277762  0.74032006    -0.91950
C3066       C  0.85503274  0.35866337  0.76952040     1.17110
H3067       H  0.93750588  0.44107856  0.78959608     0.33050
H3068       H  0.95234753  0.33281486  0.80418240     0.43900
H3069       H  0.85157413  0.37891941  0.83954650     0.37430
H3070       H  0.94150817  0.39866495  0.90728195     0.33910
H3071       H  0.00568516  0.37446261  0.75359894     0.25700
H3072       H  0.99198733  0.32970725  0.91289030     0.31630
H3073       H  0.88387717  0.36463010  0.94867800     0.37540
H3074       H  0.95596398  0.41434447  0.72526240     0.32000
H3075       H  0.86028307  0.45417140  0.76004317     0.30880
H3076       H  0.82816221  0.42863187  0.82137899     0.32560
H3077       H  0.83831281  0.40875063  0.91594570     0.31530
H3078       H  0.93597532  0.34238950  0.74320193     0.35530
H3079       H  0.85085494  0.30252065  0.81140002     0.28260
H3080       H  0.96310241  0.44202464  0.91667413     0.32490
H3081       H  0.88138204  0.41756621  0.94797078     0.35340
H3082       H  0.88903125  0.44537691  0.74802084     0.27950
H3083       H  0.87540168  0.29365860  0.79062549     0.40830
H3084       H  0.99657205  0.32747060  0.82509700     0.30880
H3085       H  0.01139166  0.37207520  0.78862838     0.38500
H3086       H  0.83462250  0.41157539  0.88067615     0.30350
H3087       H  0.96330841  0.33535344  0.92726576     0.30410
H3088       H  0.93321620  0.45155730  0.91058414     0.30680
Zr3089     Zr  0.74897841  0.23417135  0.99579945     2.17510
O3090       O  0.70090487  0.23795423  0.98182404    -0.51680
O3091       O  0.76152325  0.23784725  0.54874760    -0.74880
O3092       O  0.73499169  0.18611390  0.50753963    -0.81670
O3093       O  0.74577813  0.31112313  0.99881764    -0.83410
O3094       O  0.75989931  0.15248965  0.98316724    -0.79040
O3095       O  0.72995119  0.27367388  0.52508965    -0.90670
O3096       O  0.80785521  0.24322586  0.54920659    -0.76640
O3097       O  0.78914626  0.20602051  0.99648427    -0.86130
O3098       O  0.78626065  0.26620265  0.49912777    -0.85820
O3099       O  0.74780586  0.20694532  0.94951920    -0.72570
O3100       O  0.74415509  0.26427926  0.95297462    -0.84710
Zr3101     Zr  0.82139663  0.24083107  0.91124980     2.26420
Zr3102     Zr  0.78851110  0.17927334  0.94993931     2.06270
Zr3103     Zr  0.78106481  0.29682152  0.95797146     2.10050
Zr3104     Zr  0.82631897  0.23817250  0.49932021     1.78760
O3105       O  0.75247223  0.33038500  0.93117112    -0.93510
O3106       O  0.84563220  0.19807508  0.52575369    -0.41320
O3107       O  0.82230825  0.26891646  0.95716058    -0.77950
O3108       O  0.82674300  0.21068117  0.95360324    -0.96640
O3109       O  0.78475017  0.20858854  0.90623487    -0.89940
O3110       O  0.78132800  0.26949323  0.91165824    -0.92790
C3111       C  0.78454668  0.24316006  0.56193693     1.00970
C3112       C  0.73079865  0.30028268  0.52049050     1.13900
C3113       C  0.74080309  0.16031884  0.50084974     1.04680
O3114       O  0.81682101  0.14530259  0.97659232    -0.94940
O3115       O  0.81969164  0.15725552  0.91474885    -0.90680
O3116       O  0.83780832  0.19548168  0.89224832    -0.83830
C3117       C  0.83579583  0.16873057  0.89599731     1.11320
O3118       O  0.69616129  0.22858016  0.91197433    -0.96910
Zr3119     Zr  0.74497547  0.23701388  0.90633485     1.88940
O3120       O  0.81029357  0.24570629  0.85830971    -0.73560
O3121       O  0.76223962  0.14653189  0.91783792    -0.52820
O3122       O  0.73074503  0.19672937  0.87501534    -0.97500
O3123       O  0.71692491  0.27482249  0.88621291    -0.54720
O3124       O  0.76388418  0.24648505  0.85653040    -0.74080
C3125       C  0.78747959  0.24858479  0.84426005     0.98260
O3126       O  0.87101122  0.24320637  0.90783491    -0.62900
O3127       O  0.80406434  0.33376734  0.98751211    -0.57700
O3128       O  0.83650302  0.28557863  0.89396392    -0.94390
O3129       O  0.81500543  0.31887650  0.92293766    -0.92810
O3130       O  0.85125571  0.27621380  0.52495442    -0.93170
O3131       O  0.87539097  0.23949299  0.49072205    -0.91950
C3132       C  0.83202786  0.31107496  0.90186796     1.17110
H3133       H  0.78559401  0.27793639  0.51719658     0.33050
H3134       H  0.84366260  0.20037386  0.95240890     0.43900
H3135       H  0.78104466  0.28228271  0.89483762     0.37430
H3136       H  0.73200105  0.19479159  0.94899271     0.33910
H3137       H  0.85629678  0.20642315  0.54298505     0.25700
H3138       H  0.76711532  0.12774690  0.92550333     0.31630
H3139       H  0.74709220  0.19136064  0.86329470     0.37540
H3140       H  0.85834208  0.26801777  0.54409280     0.32000
H3141       H  0.79000914  0.34845786  0.99025337     0.30880
H3142       H  0.76230587  0.34845872  0.93365180     0.32560
H3143       H  0.71303407  0.26930713  0.86473786     0.31530
H3144       H  0.88036672  0.22024967  0.98419834     0.35530
H3145       H  0.87655965  0.25817279  0.92257033     0.28260
H3146       H  0.69131460  0.24450295  0.50010769     0.32490
H3147       H  0.68847654  0.22699093  0.89101811     0.35340
H3148       H  0.80668481  0.32583711  0.50810490     0.27950
H3149       H  0.87773355  0.22574918  0.91725358     0.40830
H3150       H  0.83460578  0.15485657  0.47998491     0.30880
H3151       H  0.82988929  0.18892714  0.53543842     0.38500
H3152       H  0.72951371  0.29101170  0.88491753     0.30350
H3153       H  0.74296833  0.14921525  0.92371072     0.30410
H3154       H  0.69458869  0.21849030  0.97793678     0.30680
Zr3155     Zr  0.75011646  0.26126555  0.65842234     2.17510
O3156       O  0.70170641  0.25081350  0.66393524    -0.51680
O3157       O  0.76194475  0.25659484  0.60607231    -0.74880
O3158       O  0.73348542  0.30939369  0.64507169    -0.81670
O3159       O  0.75243945  0.18383405  0.66266472    -0.83410
O3160       O  0.75869211  0.34485966  0.66696498    -0.79040
O3161       O  0.73376497  0.21811981  0.63306177    -0.90670
O3162       O  0.80826482  0.25181330  0.60693902    -0.76640
O3163       O  0.78851701  0.29194566  0.65724953    -0.86130
O3164       O  0.78941061  0.23143044  0.65797210    -0.85820
O3165       O  0.74762898  0.28999413  0.70341891    -0.72570
O3166       O  0.74884624  0.23217730  0.70248321    -0.84710
Zr3167     Zr  0.82490597  0.26334160  0.74619247     2.26420
Zr3168     Zr  0.78698252  0.32018697  0.70288577     2.06270
Zr3169     Zr  0.78845949  0.20258332  0.70126358     2.10050
Zr3170     Zr  0.82742863  0.26214131  0.65664859     1.78760
O3171       O  0.76449788  0.16796451  0.73107694    -0.93510
O3172       O  0.84223134  0.30131893  0.62593778    -0.41320
O3173       O  0.82684841  0.23401645  0.70115779    -0.77950
O3174       O  0.82670101  0.29116139  0.70148222    -0.96640
O3175       O  0.78562573  0.29238012  0.74785431    -0.89940
O3176       O  0.78682105  0.23175351  0.74589150    -0.92790
C3177       C  0.78477204  0.25095513  0.59366108     1.00970
C3178       C  0.73616474  0.19218900  0.64044016     1.13900
C3179       C  0.73883375  0.33588219  0.65039365     1.04680
O3180       O  0.81576557  0.35320501  0.67632477    -0.94940
O3181       O  0.81603619  0.34802932  0.73700306    -0.90680
O3182       O  0.83912698  0.31242980  0.75918394    -0.83830
C3183       C  0.83482069  0.33894771  0.75474347     1.11320
O3184       O  0.69843918  0.26841275  0.74253777    -0.96910
Zr3185     Zr  0.74759280  0.26101650  0.74740174     1.88940
O3186       O  0.81117744  0.25878358  0.79905324    -0.73560
O3187       O  0.75790724  0.35190890  0.73193101    -0.52820
O3188       O  0.72885862  0.29813797  0.77951461    -0.97500
O3189       O  0.72379271  0.21910151  0.76400816    -0.54720
O3190       O  0.76480091  0.25464281  0.79816616    -0.74080
C3191       C  0.78803838  0.25455832  0.81181582     0.98260
O3192       O  0.87455851  0.26453610  0.74374512    -0.62900
O3193       O  0.81227123  0.16626895  0.67251305    -0.57700
O3194       O  0.84664648  0.22043712  0.76464860    -0.94390
O3195       O  0.82736437  0.18522648  0.73554179    -0.92810
O3196       O  0.85513399  0.22378617  0.63694413    -0.93170
O3197       O  0.87677591  0.26749825  0.66261594    -0.91950
C3198       C  0.84486032  0.19443476  0.75636569     1.17110
H3199       H  0.78911227  0.21862991  0.64073835     0.33050
H3200       H  0.84281037  0.30287341  0.70186205     0.43900
H3201       H  0.78765604  0.21955851  0.76321808     0.37430
H3202       H  0.73105641  0.30094849  0.70312161     0.33910
H3203       H  0.85384473  0.29265851  0.61011207     0.25700
H3204       H  0.76203360  0.37079224  0.72412755     0.31630
H3205       H  0.74262628  0.31335816  0.77934032     0.37540
H3206       H  0.84229342  0.20782153  0.63448799     0.32000
H3207       H  0.80323434  0.14856387  0.67822028     0.30880
H3208       H  0.77712183  0.15179082  0.73201113     0.32560
H3209       H  0.71483127  0.22492493  0.78315130     0.31530
H3210       H  0.87971853  0.28706810  0.66980473     0.35530
H3211       H  0.87924130  0.25012807  0.72820225     0.28260
H3212       H  0.69682554  0.26139873  0.68258650     0.32490
H3213       H  0.69075568  0.25049376  0.73454511     0.35340
H3214       H  0.80660704  0.16906644  0.65103281     0.27950
H3215       H  0.87910655  0.28252600  0.73408193     0.40830
H3216       H  0.81470729  0.34710545  0.65468327     0.30880
H3217       H  0.82562926  0.30734864  0.61467784     0.38500
H3218       H  0.73842420  0.20614818  0.77061473     0.30350
H3219       H  0.73903082  0.34793637  0.72465918     0.30410
H3220       H  0.70026686  0.23109408  0.67043576     0.30680
Zr3221     Zr  0.47871851  0.08217265  0.69580502     2.17510
O3222       O  0.50914130  0.06550417  0.65669062    -0.51680
O3223       O  0.50544399  0.04944898  0.72480097    -0.74880
O3224       O  0.50997204  0.11365738  0.72239296    -0.81670
O3225       O  0.41892628  0.06432887  0.65151410    -0.83410
O3226       O  0.50431422  0.15784569  0.71081074    -0.79040
O3227       O  0.46297322  0.05257489  0.65157210    -0.90670
O3228       O  0.48662821  0.04757666  0.77157404    -0.76640
O3229       O  0.47604402  0.10928622  0.74183696    -0.86130
O3230       O  0.44890792  0.05396449  0.72482120    -0.85820
O3231       O  0.46496063  0.12947187  0.68168674    -0.72570
O3232       O  0.43359838  0.09266660  0.68835995    -0.84710
Zr3233     Zr  0.38496321  0.12778365  0.72610482     2.26420
Zr3234     Zr  0.45754322  0.15549478  0.72986173     2.06270
Zr3235     Zr  0.40444209  0.05663914  0.70168401     2.10050
Zr3236     Zr  0.44674361  0.08101745  0.77080981     1.78760
O3237       O  0.37251218  0.02555222  0.67463957    -0.93510
O3238       O  0.47884029  0.10152390  0.80803401    -0.41320
O3239       O  0.40125774  0.08332190  0.74660881    -0.77950
O3240       O  0.42736861  0.12614134  0.75731227    -0.96640
O3241       O  0.41645785  0.15567609  0.69889319    -0.89940
O3242       O  0.38990133  0.10094582  0.68104108    -0.92790
C3243       C  0.50453023  0.03966315  0.75170583     1.00970
C3244       C  0.43867899  0.05138435  0.63992568     1.13900
C3245       C  0.51870839  0.13550796  0.70972548     1.04680
O3246       O  0.47628386  0.16472933  0.78076243    -0.94940
O3247       O  0.42034360  0.18997284  0.74508163    -0.90680
O3248       O  0.39042053  0.16043670  0.76477594    -0.83830
C3249       C  0.39749636  0.18470632  0.75853248     1.11320
O3250       O  0.45578457  0.11525242  0.61582203    -0.96910
Zr3251     Zr  0.42271942  0.12854603  0.65397669     1.88940
O3252       O  0.36241360  0.16188809  0.68826907    -0.73560
O3253       O  0.47141124  0.20364897  0.72019230    -0.52820
O3254       O  0.44076701  0.17412414  0.63977617    -0.97500
O3255       O  0.40117037  0.10670082  0.60913673    -0.54720
O3256       O  0.38585811  0.16059556  0.64403729    -0.74080
C3257       C  0.36606838  0.16962556  0.65998022     0.98260
O3258       O  0.34740391  0.12498524  0.76228157    -0.62900
O3259       O  0.41353807  0.01022547  0.72246449    -0.57700
O3260       O  0.34540444  0.10136548  0.71231411    -0.94390
O3261       O  0.36314765  0.06161900  0.72863466    -0.92810
O3262       O  0.42590148  0.04073243  0.79470773    -0.93170
O3263       O  0.42792512  0.09000153  0.82108884    -0.91950
C3264       C  0.34402221  0.07513800  0.71618377     1.17110
H3265       H  0.45551807  0.03510764  0.72704616     0.33050
H3266       H  0.42597028  0.13446102  0.77741283     0.43900
H3267       H  0.37343333  0.09977774  0.66884217     0.37430
H3268       H  0.47805003  0.13793650  0.66860737     0.33910
H3269       H  0.48291768  0.08621174  0.82237698     0.25700
H3270       H  0.48861894  0.20656616  0.73198826     0.31630
H3271       H  0.43387694  0.17706963  0.61874746     0.37540
H3272       H  0.44131750  0.03081336  0.80462317     0.32000
H3273       H  0.41668212  0.01341158  0.74455274     0.30880
H3274       H  0.36057318  0.01757960  0.69030631     0.32560
H3275       H  0.40454473  0.11995691  0.59246778     0.31530
H3276       H  0.40933054  0.09731653  0.81698656     0.35530
H3277       H  0.35050347  0.10716380  0.77307331     0.28260
H3278       H  0.52740514  0.06584116  0.66647052     0.32490
H3279       H  0.45679696  0.13150789  0.60213072     0.35340
H3280       H  0.39576321  0.00031390  0.72166341     0.27950
H3281       H  0.34956658  0.13945535  0.77852620     0.40830
H3282       H  0.49599693  0.16047961  0.77905655     0.30880
H3283       H  0.49608943  0.10404764  0.79691790     0.38500
H3284       H  0.38133892  0.10840652  0.61274416     0.30350
H3285       H  0.47683389  0.20375287  0.69856365     0.30410
H3286       H  0.50881770  0.08012870  0.64111949     0.30680
Zr3287     Zr  0.10741214  0.07388914  0.70937199     2.17510
O3288       O  0.07337998  0.05273330  0.74095919    -0.51680
O3289       O  0.07920132  0.04079990  0.67954753    -0.74880
O3290       O  0.07872205  0.10970940  0.68700476    -0.81670
O3291       O  0.16352893  0.02347135  0.73900198    -0.83410
O3292       O  0.08150605  0.15295047  0.70312099    -0.79040
O3293       O  0.12915889  0.05087879  0.75552234    -0.90670
O3294       O  0.09109668  0.04815013  0.63054704    -0.76640
O3295       O  0.10797779  0.10498049  0.66686532    -0.86130
O3296       O  0.13385746  0.04877593  0.67360296    -0.85820
O3297       O  0.12233226  0.12115110  0.72534169    -0.72570
O3298       O  0.15173189  0.07569933  0.72900758    -0.84710
Zr3299     Zr  0.19811066  0.12262439  0.67703422     2.26420
Zr3300     Zr  0.12706695  0.15101839  0.68044998     2.06270
Zr3301     Zr  0.17844484  0.04887510  0.69540346     2.10050
Zr3302     Zr  0.13343760  0.07912383  0.63139512     1.78760
O3303       O  0.21506065  0.01735144  0.70975972    -0.93510
O3304       O  0.10072677  0.10296019  0.59836431    -0.41320
O3305       O  0.17922951  0.07964950  0.65405165    -0.77950
O3306       O  0.15493723  0.12343157  0.64747149    -0.96640
O3307       O  0.16887615  0.14858283  0.70924081    -0.89940
O3308       O  0.19431504  0.09262884  0.71891305    -0.92790
C3309       C  0.07577139  0.03642138  0.65077069     1.00970
C3310       C  0.14882920  0.03294938  0.76057745     1.13900
C3311       C  0.06865870  0.12966602  0.70243010     1.04680
O3312       O  0.10494951  0.16276710  0.63227508    -0.94940
O3313       O  0.16392731  0.18611949  0.66505163    -0.90680
O3314       O  0.19412162  0.15815264  0.64210591    -0.83830
C3315       C  0.18641500  0.18210238  0.65006839     1.11320
O3316       O  0.14078195  0.09956630  0.79479445    -0.96910
Zr3317     Zr  0.16504396  0.11906336  0.75187268     1.88940
O3318       O  0.22086667  0.15748968  0.71564374    -0.73560
O3319       O  0.11509496  0.19833950  0.69734165    -0.52820
O3320       O  0.14101028  0.15644107  0.77873608    -0.97500
O3321       O  0.19822306  0.10229768  0.78939244    -0.54720
O3322       O  0.19795155  0.15657447  0.76009113    -0.74080
C3323       C  0.21709226  0.16630497  0.74385430     0.98260
O3324       O  0.23557522  0.12101605  0.64054635    -0.62900
O3325       O  0.16850262  0.00766722  0.66328936    -0.57700
O3326       O  0.23748008  0.09465389  0.68584176    -0.94390
O3327       O  0.22107903  0.05285413  0.67050866    -0.92810
O3328       O  0.15181723  0.03864807  0.60419638    -0.93170
O3329       O  0.15060045  0.08880000  0.58085433    -0.91950
C3330       C  0.24004779  0.06847756  0.68083685     1.17110
H3331       H  0.12685219  0.03019536  0.66937693     0.33050
H3332       H  0.15627257  0.13327625  0.62851785     0.43900
H3333       H  0.21133022  0.09030483  0.72979385     0.37430
H3334       H  0.11003175  0.12879971  0.74002868     0.33910
H3335       H  0.09477616  0.08849019  0.58323222     0.25700
H3336       H  0.09755614  0.20263092  0.68688982     0.31630
H3337       H  0.15320489  0.16179713  0.79608067     0.37540
H3338       H  0.13813245  0.02361575  0.60689132     0.32000
H3339       H  0.18465707  0.00539481  0.65019859     0.30880
H3340       H  0.21595709  0.00263170  0.69366292     0.32560
H3341       H  0.19590953  0.11474881  0.80742645     0.31530
H3342       H  0.16916193  0.09651925  0.58462325     0.35530
H3343       H  0.23123423  0.10468298  0.62709342     0.28260
H3344       H  0.05579224  0.05674452  0.73074663     0.32490
H3345       H  0.14630397  0.11100062  0.81287873     0.35340
H3346       H  0.16919731  0.99156386  0.67723502     0.27950
H3347       H  0.23446873  0.13712405  0.62669709     0.40830
H3348       H  0.08525884  0.15954597  0.63571148     0.30880
H3349       H  0.08446380  0.10609712  0.61109277     0.38500
H3350       H  0.21629615  0.10760877  0.78146827     0.30350
H3351       H  0.11053965  0.19673550  0.71913998     0.30410
H3352       H  0.07403630  0.06398642  0.75993801     0.30680
Zr3353     Zr  0.47034013  0.39334296  0.96255882     2.17510
O3354       O  0.50090851  0.40624492  0.50410901    -0.51680
O3355       O  0.49517646  0.43073351  0.93804822    -0.74880
O3356       O  0.50860690  0.36615463  0.94363331    -0.81670
O3357       O  0.40576801  0.42710536  0.00648333    -0.83410
O3358       O  0.49845973  0.32016369  0.94288833    -0.79040
O3359       O  0.45109263  0.41629877  0.00896976    -0.90670
O3360       O  0.47966771  0.43296204  0.88962418    -0.76640
O3361       O  0.46891804  0.36977790  0.91448498    -0.86130
O3362       O  0.43974234  0.42203026  0.93439462    -0.85820
O3363       O  0.45937034  0.34460000  0.97161395    -0.72570
O3364       O  0.42715461  0.38729026  0.98113157    -0.84710
Zr3365     Zr  0.37918453  0.34422759  0.92488129     2.26420
Zr3366     Zr  0.45265031  0.32230731  0.92157903     2.06270
Zr3367     Zr  0.39543972  0.41578521  0.95560024     2.10050
Zr3368     Zr  0.43907674  0.39884523  0.88649690     1.78760
O3369       O  0.35966211  0.43978877  0.98382745    -0.93510
O3370       O  0.46984079  0.38276201  0.84677642    -0.41320
O3371       O  0.39423559  0.39092355  0.90916091    -0.77950
O3372       O  0.42092260  0.35163635  0.89487896    -0.96640
O3373       O  0.41249967  0.31789206  0.95197626    -0.89940
O3374       O  0.38434881  0.36916533  0.97130436    -0.92790
C3375       C  0.49641773  0.44130842  0.91141100     1.00970
C3376       C  0.42875183  0.42681759  0.02013473     1.13900
C3377       C  0.51475652  0.34058918  0.94877570     1.04680
O3378       O  0.46694546  0.31970775  0.86874271    -0.94940
O3379       O  0.41829641  0.28380053  0.91349227    -0.90680
O3380       O  0.39067323  0.31112227  0.88787163    -0.83830
C3381       C  0.39601199  0.28763113  0.89825299     1.11320
O3382       O  0.44393335  0.36182954  0.54240424    -0.96910
Zr3383     Zr  0.41794628  0.34248004  0.99910866     1.88940
O3384       O  0.35847732  0.30967436  0.96411107    -0.73560
O3385       O  0.47288246  0.27564884  0.91782047    -0.52820
O3386       O  0.44523084  0.30351109  0.51798894    -0.97500
O3387       O  0.38961682  0.35491183  0.54242685    -0.54720
O3388       O  0.38595681  0.30536200  0.00594253    -0.74080
C3389       C  0.36427200  0.29900621  0.99111642     0.98260
O3390       O  0.34327432  0.34290953  0.88540020    -0.62900
O3391       O  0.40068888  0.46377997  0.93811174    -0.57700
O3392       O  0.33641044  0.36667231  0.93309397    -0.94390
O3393       O  0.35726318  0.40575633  0.92258550    -0.92810
O3394       O  0.41632622  0.44188773  0.87126244    -0.93170
O3395       O  0.41904040  0.39601852  0.83540453    -0.91950
C3396       C  0.33683363  0.39320884  0.93318520     1.17110
H3397       H  0.44518859  0.44146980  0.93387368     0.33050
H3398       H  0.41909694  0.34489759  0.87408150     0.43900
H3399       H  0.36788568  0.36967490  0.98272812     0.37430
H3400       H  0.47307002  0.33618135  0.98454554     0.33910
H3401       H  0.47420047  0.39980849  0.83519855     0.25700
H3402       H  0.49056995  0.27801487  0.90752257     0.31630
H3403       H  0.43590670  0.29748560  0.53663858     0.37540
H3404       H  0.43106902  0.45371911  0.86311817     0.32000
H3405       H  0.38318912  0.46811763  0.92761183     0.30880
H3406       H  0.35518656  0.45676874  0.97210733     0.32560
H3407       H  0.39179909  0.33920769  0.55674277     0.31530
H3408       H  0.40107613  0.38690464  0.83815531     0.35530
H3409       H  0.34640910  0.35996782  0.87334848     0.28260
H3410       H  0.51894628  0.40508339  0.49458852     0.32490
H3411       H  0.44356794  0.34726178  0.55820009     0.35340
H3412       H  0.40072556  0.47555065  0.95689704     0.27950
H3413       H  0.34693204  0.32733271  0.87092615     0.40830
H3414       H  0.48692785  0.32292605  0.86979052     0.30880
H3415       H  0.48711806  0.37824577  0.85763345     0.38500
H3416       H  0.37052976  0.35325772  0.53491531     0.30350
H3417       H  0.47771383  0.27044017  0.93897400     0.30410
H3418       H  0.49994786  0.39031125  0.51815406     0.30680
Zr3419     Zr  0.11365086  0.40879454  0.93977477     2.17510
O3420       O  0.07947937  0.41256905  0.89997937    -0.51680
O3421       O  0.08806783  0.44216085  0.96982544    -0.74880
O3422       O  0.09090087  0.37898624  0.97633198    -0.81670
O3423       O  0.15296337  0.42554176  0.89128555    -0.83410
O3424       O  0.08761846  0.33346192  0.97255820    -0.79040
O3425       O  0.12028061  0.45120824  0.90889676    -0.90670
O3426       O  0.11528575  0.44887001  0.51165700    -0.76640
O3427       O  0.12199304  0.38680903  0.98748051    -0.86130
O3428       O  0.15078858  0.43580123  0.96033290    -0.85820
O3429       O  0.12498982  0.35949073  0.93064847    -0.72570
O3430       O  0.15164154  0.39914949  0.90779044    -0.84710
Zr3431     Zr  0.20810103  0.35929445  0.96377115     2.26420
Zr3432     Zr  0.13612208  0.33808109  0.97969414     2.06270
Zr3433     Zr  0.18904895  0.42526466  0.92806462     2.10050
Zr3434     Zr  0.15605332  0.41545470  0.50897981     1.78760
O3435       O  0.21256840  0.44355919  0.88433392    -0.93510
O3436       O  0.13135276  0.40040217  0.55366042    -0.41320
O3437       O  0.19473417  0.40615157  0.97650227    -0.77950
O3438       O  0.17169165  0.36683015  0.50071180    -0.96640
O3439       O  0.17167934  0.33186905  0.94381511    -0.89940
O3440       O  0.20048138  0.37801720  0.91565664    -0.92790
C3441       C  0.09343988  0.45444994  0.99537445     1.00970
C3442       C  0.13947095  0.44787009  0.88998602     1.13900
C3443       C  0.07679735  0.35728549  0.96929254     1.04680
O3444       O  0.12045923  0.33266708  0.53157195    -0.94940
O3445       O  0.16890048  0.30379776  0.50128916    -0.90680
O3446       O  0.20916281  0.32724366  0.50314593    -0.83830
C3447       C  0.19454711  0.30596516  0.50813880     1.11320
O3448       O  0.12716048  0.36133971  0.85636143    -0.96910
Zr3449     Zr  0.16144730  0.35208801  0.89583688     1.88940
O3450       O  0.22532290  0.32465288  0.92400691    -0.73560
O3451       O  0.12392653  0.29072820  0.96260355    -0.52820
O3452       O  0.13584866  0.30915071  0.88489533    -0.97500
O3453       O  0.18258356  0.36561179  0.84824685    -0.54720
O3454       O  0.19438794  0.31594223  0.88606280    -0.74080
C3455       C  0.21724625  0.31128340  0.89927344     0.98260
O3456       O  0.25628800  0.34820118  0.47069770    -0.62900
O3457       O  0.20164700  0.47089899  0.95002497    -0.57700
O3458       O  0.23646966  0.39872409  0.97994831    -0.94390
O3459       O  0.23696360  0.42448280  0.93815631    -0.92810
O3460       O  0.17916337  0.45936468  0.52215184    -0.93170
O3461       O  0.18546980  0.41488554  0.55422036    -0.91950
C3462       C  0.24661627  0.41846545  0.96430399     1.17110
H3463       H  0.14628535  0.45548342  0.96154963     0.33050
H3464       H  0.17665473  0.36017706  0.52069631     0.43900
H3465       H  0.21644592  0.37673056  0.90307053     0.37430
H3466       H  0.10952531  0.35025108  0.92133749     0.33910
H3467       H  0.12963829  0.41758013  0.56645673     0.25700
H3468       H  0.11022028  0.28409754  0.97720128     0.31630
H3469       H  0.14340469  0.30168803  0.86561909     0.37540
H3470       H  0.16616674  0.47419519  0.51600422     0.32000
H3471       H  0.20714040  0.48297402  0.93312523     0.30880
H3472       H  0.20942252  0.42926878  0.86804256     0.32560
H3473       H  0.18067082  0.34890623  0.83468887     0.31530
H3474       H  0.20242472  0.40559529  0.54735988     0.35530
H3475       H  0.26078713  0.35468525  0.49166284     0.28260
H3476       H  0.08975084  0.41284680  0.88073578     0.32490
H3477       H  0.12994994  0.34695969  0.84020481     0.35340
H3478       H  0.18552470  0.47955178  0.95947876     0.27950
H3479       H  0.25717567  0.32749061  0.47152124     0.40830
H3480       H  0.11430874  0.31290807  0.53242447     0.30880
H3481       H  0.11250190  0.39652535  0.54622104     0.38500
H3482       H  0.20242229  0.36680818  0.85274281     0.30350
H3483       H  0.11367376  0.29307491  0.94320551     0.30410
H3484       H  0.07180503  0.43168320  0.90220675     0.30680
Zr3485     Zr  0.30176155  0.26576975  0.87916980     2.17510
O3486       O  0.30880212  0.30613835  0.91345873    -0.51680
O3487       O  0.29335247  0.24306058  0.92611204    -0.74880
O3488       O  0.26073708  0.29082519  0.89313815    -0.81670
O3489       O  0.38022615  0.24479601  0.87874912    -0.83410
O3490       O  0.22661810  0.27385110  0.86198811    -0.79040
O3491       O  0.34960798  0.27740946  0.89348129    -0.90670
O3492       O  0.28863312  0.19605032  0.92102894    -0.76640
O3493       O  0.26983745  0.22836567  0.87032361    -0.86130
O3494       O  0.32841369  0.22476635  0.87495663    -0.85820
O3495       O  0.27588047  0.27730340  0.83364170    -0.72570
O3496       O  0.33057774  0.27580864  0.83726862    -0.84710
Zr3497     Zr  0.30331464  0.20683760  0.77741436     2.26420
Zr3498     Zr  0.24507900  0.23821671  0.82378210     2.06270
Zr3499     Zr  0.35701771  0.23363774  0.83203240     2.10050
Zr3500     Zr  0.29714833  0.18746280  0.86624866     1.78760
O3501       O  0.39230125  0.26918226  0.82602857    -0.93510
O3502       O  0.25542248  0.16149398  0.87615750    -0.41320
O3503       O  0.32702656  0.19431066  0.82340785    -0.77950
O3504       O  0.27343219  0.19708852  0.81933078    -0.96640
O3505       O  0.27469173  0.24709589  0.78211015    -0.89940
O3506       O  0.33257883  0.24566169  0.78628648    -0.92790
C3507       C  0.28860596  0.21895153  0.93699348     1.00970
C3508       C  0.37421201  0.26748338  0.89231414     1.13900
C3509       C  0.23578170  0.29025914  0.88409540     1.04680
O3510       O  0.20697368  0.21424046  0.84709970    -0.94940
O3511       O  0.22724198  0.20316765  0.78291686    -0.90680
O3512       O  0.26180147  0.18623413  0.75381931    -0.83830
C3513       C  0.23637442  0.18723475  0.76055877     1.11320
O3514       O  0.31135326  0.33336465  0.81182677    -0.96910
Zr3515     Zr  0.30466364  0.28586661  0.79159267     1.88940
O3516       O  0.29881368  0.23220930  0.73139745    -0.73560
O3517       O  0.21343648  0.26617728  0.79364988    -0.52820
O3518       O  0.26656341  0.31615519  0.77766867    -0.97500
O3519       O  0.34498206  0.30727272  0.76957882    -0.54720
O3520       O  0.29819974  0.27950362  0.73676782    -0.74080
C3521       C  0.29663177  0.25684408  0.72075431     0.98260
O3522       O  0.30958319  0.16322673  0.74871398    -0.62900
O3523       O  0.38526689  0.19245589  0.84074216    -0.57700
O3524       O  0.35162073  0.19680875  0.76391787    -0.94390
O3525       O  0.38406678  0.22287766  0.78860688    -0.92810
O3526       O  0.33385836  0.16301705  0.89277669    -0.93170
O3527       O  0.30012600  0.13858175  0.84973227    -0.91950
C3528       C  0.37685023  0.20445688  0.76895801     1.17110
H3529       H  0.33854287  0.22128635  0.89356084     0.33050
H3530       H  0.26254565  0.18063545  0.81467909     0.43900
H3531       H  0.34430830  0.24883738  0.76922752     0.37430
H3532       H  0.26598818  0.29461105  0.83636077     0.33910
H3533       H  0.25981727  0.15025682  0.89435491     0.25700
H3534       H  0.19561957  0.26387610  0.80368552     0.31630
H3535       H  0.27274363  0.32629758  0.75951205     0.37540
H3536       H  0.32456748  0.15180352  0.90834016     0.32000
H3537       H  0.40400212  0.19995000  0.84382020     0.30880
H3538       H  0.40982009  0.25915881  0.82900262     0.32560
H3539       H  0.34846153  0.29655839  0.75054123     0.31530
H3540       H  0.30084455  0.13929640  0.82722915     0.35530
H3541       H  0.29671364  0.14934692  0.75701247     0.28260
H3542       H  0.29937297  0.30161484  0.93256613     0.32490
H3543       H  0.31242210  0.34554936  0.79383223     0.35340
H3544       H  0.37995437  0.18589710  0.86109372     0.27950
H3545       H  0.30312535  0.16672569  0.72763138     0.40830
H3546       H  0.20959140  0.21769317  0.86925172     0.30880
H3547       H  0.24242691  0.17586062  0.88353670     0.38500
H3548       H  0.36022742  0.30213049  0.78347074     0.30350
H3549       H  0.21876907  0.28585156  0.79824409     0.30410
H3550       H  0.29852082  0.32208399  0.90480110     0.30680
Zr3551     Zr  0.27929233  0.20869527  0.62909392     2.17510
O3552       O  0.27377171  0.16345576  0.65338639    -0.51680
O3553       O  0.28487503  0.23306465  0.67666782    -0.74880
O3554       O  0.32115968  0.18874920  0.65112706    -0.81670
O3555       O  0.19794887  0.22268454  0.62269134    -0.83410
O3556       O  0.35470006  0.20239929  0.61905716    -0.79040
O3557       O  0.23182768  0.19667996  0.64383126    -0.90670
O3558       O  0.29366644  0.27948900  0.67260940    -0.76640
O3559       O  0.31204058  0.24524726  0.62218896    -0.86130
O3560       O  0.25340224  0.25046183  0.62580727    -0.85820
O3561       O  0.30507552  0.19654082  0.58414812    -0.72570
O3562       O  0.24991730  0.20032177  0.58586389    -0.84710
Zr3563     Zr  0.27999779  0.26741656  0.53074947     2.26420
Zr3564     Zr  0.33728183  0.23443127  0.57684253     2.06270
Zr3565     Zr  0.22387703  0.24287217  0.58229314     2.10050
Zr3566     Zr  0.28589924  0.28703807  0.61858108     1.78760
O3567       O  0.18903604  0.21163737  0.56062237    -0.93510
O3568       O  0.32826087  0.31177009  0.63141041    -0.41320
O3569       O  0.25568881  0.28015086  0.57553763    -0.77950
O3570       O  0.31065205  0.27624733  0.57312877    -0.96640
O3571       O  0.30733056  0.22654197  0.53426692    -0.89940
O3572       O  0.24801962  0.23075612  0.53678759    -0.92790
C3573       C  0.29126814  0.25708175  0.68798093     1.00970
C3574       C  0.20624797  0.20330462  0.64009889     1.13900
C3575       C  0.34619596  0.18872457  0.64285595     1.04680
O3576       O  0.37586137  0.26049518  0.59868856    -0.94940
O3577       O  0.35329506  0.26590519  0.53252716    -0.90680
O3578       O  0.31902498  0.28298817  0.50228997    -0.83830
C3579       C  0.34444363  0.28064558  0.50903985     1.11320
O3580       O  0.26636034  0.14291052  0.55996972    -0.96910
Zr3581     Zr  0.27542701  0.18960079  0.54052216     1.88940
O3582       O  0.28062204  0.24458539  0.98143455    -0.73560
O3583       O  0.36907013  0.20334263  0.55091927    -0.52820
O3584       O  0.31270486  0.15821256  0.52700970    -0.97500
O3585       O  0.23618422  0.16851522  0.01389653    -0.54720
O3586       O  0.28241318  0.19723899  0.98584462    -0.74080
C3587       C  0.28319447  0.21974429  0.97011264     0.98260
O3588       O  0.28098936  0.31770011  0.52423581    -0.62900
O3589       O  0.19496532  0.27957200  0.60364785    -0.57700
O3590       O  0.23542247  0.28322035  0.51408607    -0.94390
O3591       O  0.20062748  0.27093942  0.54500716    -0.92810
O3592       O  0.25037767  0.31310001  0.64493363    -0.93170
O3593       O  0.28242877  0.33553469  0.60217132    -0.91950
C3594       C  0.21043312  0.28420163  0.52269030     1.17110
H3595       H  0.24298515  0.25386369  0.64399971     0.33050
H3596       H  0.32237981  0.29199392  0.56900364     0.43900
H3597       H  0.23568007  0.22927766  0.51946066     0.37430
H3598       H  0.31480850  0.17924198  0.58755822     0.33910
H3599       H  0.32355134  0.32444150  0.64862059     0.25700
H3600       H  0.38662021  0.20608194  0.56210242     0.31630
H3601       H  0.30667924  0.14905293  0.00764993     0.37540
H3602       H  0.26031339  0.32505249  0.66008739     0.32000
H3603       H  0.17626984  0.27159583  0.60313448     0.30880
H3604       H  0.17159747  0.22167124  0.56381976     0.32560
H3605       H  0.24413686  0.15453232  0.99968782     0.31530
H3606       H  0.29935209  0.33918677  0.59083929     0.35530
H3607       H  0.26429860  0.32459458  0.53433903     0.28260
H3608       H  0.28013629  0.16599539  0.67477454     0.32490
H3609       H  0.26833905  0.12979808  0.54243580     0.35340
H3610       H  0.20003939  0.28066131  0.62555050     0.27950
H3611       H  0.29583499  0.32399853  0.53825502     0.40830
H3612       H  0.37394949  0.25868721  0.62098615     0.30880
H3613       H  0.34022700  0.29738381  0.64061590     0.38500
H3614       H  0.22884134  0.18326532  0.00046623     0.30350
H3615       H  0.36311701  0.18422697  0.55632619     0.30410
H3616       H  0.28700049  0.15047322  0.64381062     0.30680
C3617       C  0.31638292  0.40920234  0.94990154    -0.05690
C3618       C  0.30764635  0.39996519  0.97881238    -0.02800
C3619       C  0.28768605  0.41544603  0.99400328     0.02190
C3620       C  0.27152891  0.43277566  0.97590369    -0.05680
C3621       C  0.28523644  0.44841877  0.95416466    -0.02790
C3622       C  0.30702824  0.43544097  0.93910746     0.02180
C3623       C  0.31701709  0.37405337  0.99191474     0.36830
C3624       C  0.27377421  0.47463564  0.94405795     0.36820
C3625       C  0.31799017  0.44785431  0.91195948     0.35250
C3626       C  0.27883127  0.40806496  0.52422451     0.35250
N3627       N  0.32667153  0.45779690  0.89026504    -0.39570
N3628       N  0.27188213  0.40202286  0.54832434    -0.39570
N3629       N  0.26482295  0.49580466  0.93621038    -0.39020
N3630       N  0.32383368  0.35301725  0.00226129    -0.39020
C3631       C  0.31969210  0.06063747  0.70632526    -0.05690
C3632       C  0.31304551  0.05917807  0.67489075    -0.02800
C3633       C  0.28581628  0.05602918  0.66588314     0.02190
C3634       C  0.26593068  0.05625653  0.68837162    -0.05680
C3635       C  0.27297054  0.05362317  0.71952622    -0.02790
C3636       C  0.30034060  0.05475513  0.72840558     0.02180
C3637       C  0.33337154  0.06330275  0.65172103     0.36830
C3638       C  0.25249110  0.05424109  0.74298814     0.36820
C3639       C  0.30809297  0.05426760  0.76052054     0.35250
C3640       C  0.27796518  0.05687491  0.63383616     0.35250
N3641       N  0.31417422  0.05397818  0.78609274    -0.39570
N3642       N  0.27180204  0.05769018  0.60831018    -0.39570
N3643       N  0.23705863  0.05512347  0.76264499    -0.39020
N3644       N  0.34884006  0.06594577  0.63230542    -0.39020
C3645       C  0.02420968  0.39710009  0.91320353    -0.05690
C3646       C  0.03975373  0.37456781  0.90146919    -0.02800
C3647       C  0.05171275  0.35538687  0.92125808     0.02190
C3648       C  0.05136245  0.36096791  0.95263260    -0.05680
C3649       C  0.03411652  0.38159124  0.96441623    -0.02790
C3650       C  0.02205400  0.40102855  0.94494484     0.02180
C3651       C  0.04475369  0.37234187  0.86902257     0.36830
C3652       C  0.02619792  0.37967971  0.99589208     0.36820
C3653       C  0.00499694  0.42311293  0.95723314     0.35250
C3654       C  0.06344971  0.32960368  0.90951655     0.35250
N3655       N  0.99135334  0.44070452  0.96709019    -0.39570
N3656       N  0.07259426  0.30896681  0.89995902    -0.39570
N3657       N  0.01912497  0.37642353  0.52064429    -0.39020
N3658       N  0.04975219  0.37094101  0.84337647    -0.39020
C3659       C  0.01886343  0.08538236  0.76169921    -0.05690
C3660       C  0.04046535  0.10272585  0.77306186    -0.02800
C3661       C  0.05219881  0.12299431  0.75452474     0.02190
C3662       C  0.04645495  0.12263501  0.72318700    -0.05680
C3663       C  0.02485533  0.10583269  0.71157296    -0.02790
C3664       C  0.01121808  0.08689599  0.73050828     0.02180
C3665       C  0.05199060  0.09868929  0.80342720     0.36830
C3666       C  0.01499353  0.11057463  0.68084648     0.36820
C3667       C  0.98969620  0.06923038  0.71761453     0.35250
C3668       C  0.06867532  0.14530358  0.76810289     0.35250
N3669       N  0.97260404  0.05512976  0.70713254    -0.39570
N3670       N  0.08120783  0.16347247  0.77918510    -0.39570
N3671       N  0.00652327  0.11556788  0.65680946    -0.39020
N3672       N  0.06113693  0.09576966  0.82763726    -0.39020
C3673       C  0.98165730  0.21865810  0.80186468    -0.05690
C3674       C  0.96301435  0.23290729  0.78355364    -0.02800
C3675       C  0.94670733  0.25182037  0.79953715     0.02190
C3676       C  0.95813580  0.26633007  0.82517312    -0.05680
C3677       C  0.98501201  0.25892930  0.83530939    -0.02790
C3678       C  0.99669846  0.23418968  0.82353207     0.02180
C3679       C  0.95290416  0.21921548  0.75581342     0.36830
C3680       C  0.99993965  0.27462996  0.85863470     0.36820
C3681       C  0.02154104  0.22251127  0.83639490     0.35250
C3682       C  0.91743770  0.24810390  0.79700846     0.35250
N3683       N  0.04136906  0.21307925  0.84660057    -0.39570
N3684       N  0.89432153  0.24319380  0.79690226    -0.39570
N3685       N  0.01255283  0.28658804  0.87719242    -0.39020
N3686       N  0.94481961  0.20801917  0.73388074    -0.39020
C3687       C  0.54118409  0.13156680  0.68804465    -0.05690
C3688       C  0.53580801  0.13811778  0.65754701    -0.02800
C3689       C  0.54392855  0.11937243  0.63451156     0.02190
C3690       C  0.56361338  0.09820349  0.64071374    -0.05680
C3691       C  0.57305378  0.09507724  0.67123300    -0.02790
C3692       C  0.56130625  0.11129347  0.69479830     0.02180
C3693       C  0.52059769  0.16318728  0.64977186     0.36830
C3694       C  0.59332262  0.07419763  0.67915433     0.36820
C3695       C  0.56894529  0.10636581  0.72633970     0.35250
C3696       C  0.52874664  0.11988281  0.60582871     0.35250
N3697       N  0.57499219  0.10238229  0.75148476    -0.39570
N3698       N  0.51590449  0.12121446  0.58353318    -0.39570
N3699       N  0.60940099  0.05760096  0.68601813    -0.39020
N3700       N  0.50863617  0.18321644  0.64336029    -0.39020
C3701       C  0.55204629  0.36961549  0.51887747    -0.05690
C3702       C  0.56432227  0.37500534  0.49025437    -0.02800
C3703       C  0.55942311  0.35661660  0.96542306     0.02190
C3704       C  0.53923936  0.33594060  0.96772156    -0.05680
C3705       C  0.53269212  0.32656935  0.99674040    -0.02790
C3706       C  0.53558310  0.34526167  0.52149752     0.02180
C3707       C  0.57881384  0.40085308  0.48453860     0.36830
C3708       C  0.51876953  0.29993862  0.99993588     0.36820
C3709       C  0.51794587  0.34176603  0.54737894     0.35250
C3710       C  0.57084851  0.36191000  0.93577896     0.35250
N3711       N  0.50327711  0.33915829  0.56755818    -0.39570
N3712       N  0.58004851  0.36613548  0.91216706    -0.39570
N3713       N  0.50789685  0.27854810  0.00243066    -0.39020
N3714       N  0.58975576  0.42152498  0.47858626    -0.39020
C3715       C  0.59744600  0.21773682  0.53557572    -0.05690
C3716       C  0.61538901  0.23798044  0.52561131    -0.02800
C3717       C  0.62591430  0.25557237  0.54856879     0.02190
C3718       C  0.61016414  0.26018014  0.57520687    -0.05680
C3719       C  0.58371059  0.24783158  0.57652865    -0.02790
C3720       C  0.57643975  0.22791025  0.55389761     0.02180
C3721       C  0.62863077  0.23432392  0.49663745     0.36830
C3722       C  0.56544598  0.25317408  0.60160164     0.36820
C3723       C  0.54986969  0.21468889  0.55247671     0.35250
C3724       C  0.65424938  0.26327479  0.54732615     0.35250
N3725       N  0.52850523  0.20428841  0.55103838    -0.39570
N3726       N  0.67739016  0.26766841  0.54820766    -0.39570
N3727       N  0.55070912  0.25714169  0.62156540    -0.39020
N3728       N  0.63889365  0.23184241  0.47319966    -0.39020
C3729       C  0.02799141  0.51673638  0.00033924    -0.05690
C3730       C  0.05556707  0.52515087  0.99667337    -0.02800
C3731       C  0.07758577  0.50556012  0.99772934     0.02190
C3732       C  0.07291933  0.47715829  0.00460155    -0.05680
C3733       C  0.04635926  0.47020510  0.51468141    -0.02790
C3734       C  0.02394260  0.48946480  0.51194283     0.02180
C3735       C  0.06138387  0.55471788  0.99561241     0.36830
C3736       C  0.04321842  0.44472555  0.53152172     0.36820
C3737       C  0.99696853  0.48129590  0.52147129     0.35250
C3738       C  0.10531998  0.51487968  0.99307436     0.35250
N3739       N  0.97543040  0.47469590  0.52918948    -0.39570
N3740       N  0.12758049  0.52239938  0.99010776    -0.39570
N3741       N  0.04144715  0.42527502  0.54674138    -0.39020
N3742       N  0.06553681  0.57854040  0.99654655    -0.39020
C3743       C  0.95981066  0.55997433  0.82822088    -0.05690
C3744       C  0.97567359  0.53608877  0.82763239    -0.02800
C3745       C  0.96136714  0.51118086  0.83366329     0.02190
C3746       C  0.93351339  0.50793736  0.82278714    -0.05680
C3747       C  0.92157595  0.53137831  0.80833304    -0.02790
C3748       C  0.93557983  0.55757821  0.81018726     0.02180
C3749       C  0.00470322  0.53883342  0.83433531     0.36830
C3750       C  0.89452830  0.52947467  0.79466626     0.36820
C3751       C  0.92503570  0.58197550  0.79505271     0.35250
C3752       C  0.97406891  0.49434287  0.85692518     0.35250
N3753       N  0.91661567  0.60122529  0.78224990    -0.39570
N3754       N  0.98742104  0.48338821  0.87513298    -0.39570
N3755       N  0.87281573  0.52794396  0.78394634    -0.39020
N3756       N  0.02787745  0.54071000  0.83956801    -0.39020
C3757       C  0.55557068  0.51405955  0.90626266    -0.05690
C3758       C  0.54212398  0.50517331  0.93291136    -0.02800
C3759       C  0.52901729  0.47895194  0.93434118     0.02190
C3760       C  0.51785723  0.46539941  0.90783857    -0.05680
C3761       C  0.52761423  0.47621095  0.87970262    -0.02790
C3762       C  0.54776950  0.49877653  0.87914352     0.02180
C3763       C  0.53682584  0.52401394  0.95821035     0.36830
C3764       C  0.51824935  0.46333195  0.85138975     0.36820
C3765       C  0.55907552  0.50714621  0.85045680     0.35250
C3766       C  0.53000016  0.46586709  0.96388140     0.35250
N3767       N  0.56809444  0.51387680  0.82748237    -0.39570
N3768       N  0.53249491  0.45640968  0.98785431    -0.39570
N3769       N  0.51077751  0.45310557  0.82866360    -0.39020
N3770       N  0.53005332  0.53784817  0.97854195    -0.39020
C3771       C  0.63667069  0.54676765  0.55200350    -0.05690
C3772       C  0.61291357  0.53305743  0.56034209    -0.02800
C3773       C  0.61438104  0.51258517  0.58254231     0.02190
C3774       C  0.64062751  0.50320957  0.59347600    -0.05680
C3775       C  0.66323990  0.52092911  0.58984623    -0.02790
C3776       C  0.66109664  0.54327212  0.56938702     0.02180
C3777       C  0.58817570  0.53458016  0.04158235     0.36830
C3778       C  0.68890064  0.51523636  0.60548680     0.36820
C3779       C  0.68492977  0.56033169  0.56370500     0.35250
C3780       C  0.58860118  0.49852714  0.58772161     0.35250
N3781       N  0.70441044  0.57342170  0.55966780    -0.39570
N3782       N  0.56668231  0.48949060  0.58766672    -0.39570
N3783       N  0.70935594  0.51069678  0.61802080    -0.39020
N3784       N  0.56818142  0.53317993  0.02732867    -0.39020
C3785       C  0.76477125  0.55666521  0.93748871    -0.05690
C3786       C  0.77816756  0.55622947  0.96610185    -0.02800
C3787       C  0.80574584  0.54930306  0.96744502     0.02190
C3788       C  0.81998446  0.54677615  0.94012770    -0.05680
C3789       C  0.80603589  0.54296341  0.91210981    -0.02790
C3790       C  0.77789040  0.54768567  0.91083117     0.02180
C3791       C  0.76480852  0.56623353  0.99347372     0.36830
C3792       C  0.82092746  0.53802418  0.88424336     0.36820
C3793       C  0.76331337  0.54693974  0.88176988     0.35250
C3794       C  0.82020814  0.54815919  0.49650540     0.35250
N3795       N  0.75177733  0.54649344  0.85855481    -0.39570
N3796       N  0.83159128  0.54700467  0.51975492    -0.39570
N3797       N  0.83232862  0.53418077  0.86167820    -0.39020
N3798       N  0.75466979  0.57478125  0.51536782    -0.39020
C3799       C  0.00738227  0.97644930  0.64072505    -0.05690
C3800       C  0.00357760  0.00525940  0.63437291    -0.02800
C3801       C  0.02640387  0.02419219  0.63338560     0.02190
C3802       C  0.05320151  0.01545662  0.64163066    -0.05680
C3803       C  0.05717742  0.98636275  0.64572783    -0.02790
C3804       C  0.03481893  0.96709764  0.64366583     0.02180
C3805       C  0.97610904  0.01556171  0.62947870     0.36830
C3806       C  0.08448370  0.97616205  0.65231163     0.36820
C3807       C  0.04025297  0.93733137  0.64326160     0.35250
C3808       C  0.02258504  0.05232693  0.62245337     0.35250
N3809       N  0.04499001  0.91362265  0.64172643    -0.39570
N3810       N  0.01983497  0.07437448  0.61226901    -0.39570
N3811       N  0.10630136  0.96809351  0.65761637    -0.39020
N3812       N  0.95410235  0.02372575  0.62559069    -0.39020
C3813       C  0.91431467  0.97223560  0.76192296    -0.05690
C3814       C  0.89747603  0.99407213  0.75116957    -0.02800
C3815       C  0.87638385  0.00422232  0.76959863     0.02190
C3816       C  0.87657367  0.99738749  0.80051057    -0.05680
C3817       C  0.88815384  0.97158948  0.80862518    -0.02790
C3818       C  0.90817399  0.95950596  0.78984178     0.02180
C3819       C  0.90345127  0.00755139  0.72259668     0.36830
C3820       C  0.88272260  0.96058696  0.83844878     0.36820
C3821       C  0.92308869  0.93524904  0.80009072     0.35250
C3822       C  0.85607419  0.02334406  0.75791962     0.35250
N3823       N  0.93507259  0.91631260  0.80946338    -0.39570
N3824       N  0.83915845  0.03764575  0.74808753    -0.39570
N3825       N  0.87826669  0.95173957  0.86225066    -0.39020
N3826       N  0.90876576  0.01821255  0.69993805    -0.39020
C3827       C  0.56716247  0.97495158  0.74803220    -0.05690
C3828       C  0.56948522  0.99673322  0.77053275    -0.02800
C3829       C  0.54807788  0.01704158  0.77435159     0.02190
C3830       C  0.52354684  0.01517350  0.75682741    -0.05680
C3831       C  0.52004683  0.99170152  0.73727219    -0.02790
C3832       C  0.54158423  0.97257931  0.73229246     0.02180
C3833       C  0.59430783  0.99934989  0.78866129     0.36830
C3834       C  0.49439654  0.98802873  0.72043179     0.36820
C3835       C  0.53742454  0.95152348  0.70886618     0.35250
C3836       C  0.55165233  0.04042139  0.79545916     0.35250
N3837       N  0.53411005  0.93575264  0.68903126    -0.39570
N3838       N  0.55441411  0.05906563  0.81243448    -0.39570
N3839       N  0.47418743  0.98487046  0.70677465    -0.39020
N3840       N  0.61400298  0.00152274  0.80343705    -0.39020
C3841       C  0.68275125  0.98084429  0.54868176    -0.05690
C3842       C  0.69856949  0.97710688  0.57481387    -0.02800
C3843       C  0.68378469  0.97651703  0.60201856     0.02190
C3844       C  0.65699073  0.96426680  0.60154124    -0.05680
C3845       C  0.64602160  0.95530668  0.57269405    -0.02790
C3846       C  0.66001980  0.96281010  0.54594855     0.02180
C3847       C  0.72704708  0.98546204  0.57469483     0.36830
C3848       C  0.61976583  0.94139569  0.56987729     0.36820
C3849       C  0.64946415  0.95573282  0.51593271     0.35250
C3850       C  0.69372244  0.99454902  0.62670353     0.35250
N3851       N  0.64125316  0.94959099  0.49189014    -0.39570
N3852       N  0.70230383  0.01019757  0.64486121    -0.39570
N3853       N  0.59869810  0.93050584  0.56719696    -0.39020
N3854       N  0.74979700  0.99208776  0.57465106    -0.39020
C3855       C  0.77050959  0.94318489  0.73110367    -0.05690
C3856       C  0.78402849  0.95675202  0.70764261    -0.02800
C3857       C  0.80227408  0.94063183  0.69031761     0.02190
C3858       C  0.81091575  0.91430075  0.70159289    -0.05680
C3859       C  0.80390413  0.90687481  0.73173819    -0.02790
C3860       C  0.78586349  0.92412880  0.74800968     0.02180
C3861       C  0.77417523  0.98360966  0.69722000     0.36830
C3862       C  0.81365934  0.88150973  0.74564952     0.36820
C3863       C  0.77685374  0.91688111  0.77814600     0.35250
C3864       C  0.80966869  0.94978374  0.66018160     0.35250
N3865       N  0.76966293  0.91095342  0.80218853    -0.39570
N3866       N  0.81549073  0.95710666  0.63612873    -0.39570
N3867       N  0.82137010  0.86135062  0.75722104    -0.39020
N3868       N  0.76627359  0.00507127  0.68890496    -0.39020
C3869       C  0.05678273  0.51419486  0.77561112    -0.05690
C3870       C  0.02867885  0.51949600  0.76968554    -0.02800
C3871       C  0.00853727  0.49754919  0.77199225     0.02190
C3872       C  0.01571089  0.47011722  0.78174748    -0.05680
C3873       C  0.04401224  0.46420172  0.78378609    -0.02790
C3874       C  0.06407992  0.48569706  0.78004737     0.02180
C3875       C  0.02022183  0.54778776  0.76274931     0.36830
C3876       C  0.05265896  0.43578794  0.78967459     0.36820
C3877       C  0.09272333  0.47844091  0.77926899     0.35250
C3878       C  0.98051679  0.50285946  0.76292066     0.35250
N3879       N  0.11571400  0.47330519  0.77752791    -0.39570
N3880       N  0.95826272  0.50699137  0.75495724    -0.39570
N3881       N  0.05968011  0.41302971  0.79398866    -0.39020
N3882       N  0.01340647  0.57044040  0.75743308    -0.39020
C3883       C  0.04116648  0.64575881  0.93861476    -0.05690
C3884       C  0.03379643  0.64732049  0.90787906    -0.02800
C3885       C  0.04036630  0.62495747  0.88829372     0.02190
C3886       C  0.06160314  0.60624495  0.89650549    -0.05680
C3887       C  0.07367851  0.60885726  0.92607161    -0.02790
C3888       C  0.06419385  0.62981189  0.94638266     0.02180
C3889       C  0.01899924  0.67153385  0.89702136     0.36830
C3890       C  0.09446490  0.58952659  0.93642949     0.36820
C3891       C  0.07720892  0.63500251  0.97574381     0.35250
C3892       C  0.02444300  0.62038100  0.86048053     0.35250
N3893       N  0.08771177  0.63943670  0.99913178    -0.39570
N3894       N  0.01253551  0.61619795  0.83788442    -0.39570
N3895       N  0.11086257  0.57391444  0.94490808    -0.39020
N3896       N  0.00768521  0.69118804  0.88829702    -0.39020
C3897       C  0.15066235  0.46826954  0.86932790    -0.05690
C3898       C  0.15520233  0.45840158  0.83910343    -0.02800
C3899       C  0.17610619  0.47034417  0.82185692     0.02190
C3900       C  0.19094321  0.49301669  0.83423519    -0.05680
C3901       C  0.19202028  0.49624865  0.86603857    -0.02790
C3902       C  0.16878669  0.48824601  0.88232449     0.02180
C3903       C  0.13893736  0.43546929  0.82632214     0.36830
C3904       C  0.21267324  0.51445509  0.87969982     0.36820
C3905       C  0.16200846  0.50259728  0.91042668     0.35250
C3906       C  0.17978630  0.46265464  0.79019260     0.35250
N3907       N  0.15626593  0.51514202  0.93215308    -0.39570
N3908       N  0.18267284  0.45654358  0.76483507    -0.39570
N3909       N  0.22947021  0.52875996  0.89039571    -0.39020
N3910       N  0.12588145  0.41719485  0.81627854    -0.39020
C3911       C  0.05436120  0.96806415  0.87942051    -0.05690
C3912       C  0.05500024  0.99151402  0.89979023    -0.02800
C3913       C  0.03415358  0.01284297  0.89871022     0.02190
C3914       C  0.01081439  0.00983603  0.87909956    -0.05680
C3915       C  0.00798964  0.98319603  0.86394880    -0.02790
C3916       C  0.02989444  0.96362307  0.86263982     0.02180
C3917       C  0.07610024  0.99261290  0.92318852     0.36830
C3918       C  0.98168493  0.97475950  0.85136326     0.36820
C3919       C  0.02684845  0.93817540  0.84446768     0.35250
C3920       C  0.03676886  0.03750434  0.91810839     0.35250
N3921       N  0.02426818  0.91777074  0.83014412    -0.39570
N3922       N  0.03889170  0.05710312  0.93385964    -0.39570
N3923       N  0.96039060  0.96808565  0.84210008    -0.39020
N3924       N  0.09252530  0.99294345  0.94244638    -0.39020
C3925       C  0.15874407  0.02705400  0.79253148    -0.05690
C3926       C  0.14182099  0.03077747  0.81830825    -0.02800
C3927       C  0.15197924  0.02297104  0.84743706     0.02190
C3928       C  0.17755883  0.00961511  0.84987607    -0.05680
C3929       C  0.19652589  0.01787709  0.82866093    -0.02790
C3930       C  0.18676694  0.01953038  0.79834711     0.02180
C3931       C  0.11322373  0.03780696  0.81478253     0.36830
C3932       C  0.22517337  0.01310781  0.83557789     0.36820
C3933       C  0.20299011  0.00464018  0.77616314     0.35250
C3934       C  0.13480985  0.02401784  0.87377278     0.35250
N3935       N  0.21659238  0.99052169  0.76106196    -0.39570
N3936       N  0.12106925  0.02551074  0.89487938    -0.39570
N3937       N  0.24802286  0.00927483  0.84119382    -0.39020
N3938       N  0.09011632  0.04240446  0.81235628    -0.39020
C3939       C  0.03006763  0.88135756  0.70298894    -0.05690
C3940       C  0.05804576  0.87544186  0.69859202    -0.02800
C3941       C  0.07708859  0.88730736  0.72015484     0.02190
C3942       C  0.06668448  0.89701282  0.74874611    -0.05680
C3943       C  0.03859239  0.89579991  0.75255715    -0.02790
C3944       C  0.02372692  0.90014807  0.72636728     0.02180
C3945       C  0.06682853  0.85915285  0.67249607     0.36830
C3946       C  0.02723888  0.87750544  0.77500278     0.36820
C3947       C  0.02454504  0.92950352  0.71848362     0.35250
C3948       C  0.10559402  0.88913293  0.71266635     0.35250
N3949       N  0.02743552  0.95326099  0.71456866    -0.39570
N3950       N  0.12816866  0.89056003  0.70542834    -0.39570
N3951       N  0.01711316  0.86290119  0.79236866    -0.39020
N3952       N  0.07383201  0.84599059  0.65167798    -0.39020
C3953       C  0.11067595  0.77012695  0.80504511    -0.05690
C3954       C  0.08599452  0.75824227  0.81548930    -0.02800
C3955       C  0.07689012  0.73327052  0.80180986     0.02190
C3956       C  0.09568277  0.71846573  0.78424629    -0.05680
C3957       C  0.11329431  0.73393359  0.76615943    -0.02790
C3958       C  0.12236277  0.75979850  0.77778134     0.02180
C3959       C  0.07141260  0.76981805  0.84131219     0.36830
C3960       C  0.12622220  0.72056797  0.74031504     0.36820
C3961       C  0.14362466  0.77506106  0.76236880     0.35250
C3962       C  0.05106795  0.72066748  0.80963257     0.35250
N3963       N  0.16053391  0.78736556  0.75015654    -0.39570
N3964       N  0.03013941  0.71105727  0.81560898    -0.39570
N3965       N  0.13660587  0.70997084  0.71963279    -0.39020
N3966       N  0.05981058  0.77882584  0.86203600    -0.39020
C3967       C  0.51798138  0.88202216  0.64413053    -0.05690
C3968       C  0.53777789  0.86173767  0.63556872    -0.02800
C3969       C  0.54557670  0.84104942  0.65632394     0.02190
C3970       C  0.54368386  0.84781688  0.68731898    -0.05680
C3971       C  0.52186838  0.86499777  0.69636132    -0.02790
C3972       C  0.50843588  0.88193898  0.67463477     0.02180
C3973       C  0.55222592  0.86363209  0.60699873     0.36830
C3974       C  0.51634266  0.86806622  0.72851684     0.36820
C3975       C  0.48626663  0.89987332  0.68447145     0.35250
C3976       C  0.56229475  0.81752387  0.64679843     0.35250
N3977       N  0.46878585  0.91424529  0.69280244    -0.39570
N3978       N  0.57540298  0.79863692  0.63901387    -0.39570
N3979       N  0.51192383  0.87060912  0.75422572    -0.39020
N3980       N  0.56391883  0.86517731  0.58437592    -0.39020
C3981       C  0.43014835  0.03260722  0.61478729    -0.05690
C3982       C  0.41075905  0.01216943  0.62278411    -0.02800
C3983       C  0.39026647  0.00423525  0.60183064     0.02190
C3984       C  0.39746083  0.00462336  0.57119989    -0.05680
C3985       C  0.41519467  0.02602695  0.56191226    -0.02790
C3986       C  0.43068877  0.04127343  0.58410485     0.02180
C3987       C  0.41446566  0.99590288  0.65002929     0.36830
C3988       C  0.41930179  0.02992588  0.52972088     0.36820
C3989       C  0.44930091  0.06292856  0.57472528     0.35250
C3990       C  0.36745912  0.98704639  0.61123895     0.35250
N3991       N  0.46442804  0.07957273  0.56611324    -0.39570
N3992       N  0.34931073  0.97335684  0.61878133    -0.39570
N3993       N  0.42256000  0.03307491  0.50395494    -0.39020
N3994       N  0.41708335  0.98104213  0.67040643    -0.39020
C3995       C  0.51853671  0.97157733  0.52301984    -0.05690
C3996       C  0.51629084  0.99753488  0.53940089    -0.02800
C3997       C  0.53599334  0.01911039  0.53724768     0.02190
C3998       C  0.55931997  0.01597740  0.51928683    -0.05680
C3999       C  0.56083885  0.99142734  0.50061187    -0.02790
C4000       C  0.54062350  0.96944100  0.50233698     0.02180
C4001       C  0.49436026  0.00211360  0.56047787     0.36830
C4002       C  0.58306251  0.98901913  0.97946212     0.36820
C4003       C  0.54340755  0.94426923  0.98387330     0.35250
C4004       C  0.53242183  0.04473670  0.55474614     0.35250
N4005       N  0.54569147  0.92419468  0.96897493    -0.39570
N4006       N  0.52883701  0.06490124  0.56895677    -0.39570
N4007       N  0.60054673  0.98755501  0.96208585    -0.39020
N4008       N  0.47771494  0.00549293  0.57843320    -0.39020
C4009       C  0.51678468  0.51729789  0.64576728    -0.05690
C4010       C  0.54550910  0.51930491  0.65046591    -0.02800
C4011       C  0.56223771  0.49465745  0.65392537     0.02190
C4012       C  0.55130876  0.46717380  0.64912107    -0.05680
C4013       C  0.52237350  0.46527185  0.64727196    -0.02790
C4014       C  0.50544142  0.48989064  0.64788081     0.02180
C4015       C  0.55811836  0.54676398  0.65041356     0.36830
C4016       C  0.50991784  0.43784725  0.64365634     0.36820
C4017       C  0.47609324  0.48696642  0.64997219     0.35250
C4018       C  0.59123198  0.49767124  0.66016881     0.35250
N4019       N  0.45267985  0.48460445  0.65214376    -0.39570
N4020       N  0.61437592  0.50010411  0.66533682    -0.39570
N4021       N  0.49999619  0.41591481  0.64060708    -0.39020
N4022       N  0.56818130  0.56873828  0.65028282    -0.39020
C4023       C  0.52292086  0.61704322  0.50944995    -0.05690
C4024       C  0.51114883  0.61393281  0.97960951    -0.02800
C4025       C  0.52122516  0.63010328  0.95563523     0.02190
C4026       C  0.54336273  0.64836543  0.96096604    -0.05680
C4027       C  0.54991644  0.65636281  0.99101028    -0.02790
C4028       C  0.54277710  0.63848587  0.51466283     0.02180
C4029       C  0.49206264  0.59160017  0.97182773     0.36830
C4030       C  0.56667818  0.68095901  0.49704478     0.36820
C4031       C  0.55994116  0.63876504  0.54196357     0.35250
C4032       C  0.51135151  0.62565776  0.92458892     0.35250
N4033       N  0.57414380  0.63862964  0.56329293    -0.39570
N4034       N  0.50345734  0.62214931  0.89983482    -0.39570
N4035       N  0.57972708  0.70084645  0.50184701    -0.39020
N4036       N  0.47725185  0.57365557  0.96467834    -0.39020
C4037       C  0.42731166  0.49097808  0.58629461    -0.05690
C4038       C  0.45157273  0.48379944  0.57088368    -0.02800
C4039       C  0.45053069  0.46453950  0.54753277     0.02190
C4040       C  0.43039088  0.44404648  0.54753245    -0.05680
C4041       C  0.40906274  0.44573612  0.56906292    -0.02790
C4042       C  0.40695778  0.47009065  0.58779655     0.02180
C4043       C  0.47886265  0.49186131  0.57938527     0.36830
C4044       C  0.38774567  0.42465909  0.56929185     0.36820
C4045       C  0.38311622  0.47468734  0.60632821     0.35250
C4046       C  0.46670497  0.46991669  0.02070028     0.35250
N4047       N  0.36410490  0.47836934  0.62119759    -0.39570
N4048       N  0.47797184  0.47486635  0.99848523    -0.39570
N4049       N  0.37037639  0.40818918  0.56965548    -0.39020
N4050       N  0.50236863  0.49384609  0.58173529    -0.39020
C4051       C  0.46496200  0.77025957  0.59985096    -0.05690
C4052       C  0.45237145  0.76436504  0.62801590    -0.02800
C4053       C  0.46230666  0.74172603  0.64474258     0.02190
C4054       C  0.48150097  0.72470835  0.63046464    -0.05680
C4055       C  0.50125256  0.73864816  0.61377491    -0.02790
C4056       C  0.49123299  0.75891159  0.59391290     0.02180
C4057       C  0.42997221  0.78092136  0.63963139     0.36830
C4058       C  0.52854392  0.72734542  0.61124306     0.36820
C4059       C  0.50628216  0.76520364  0.56664494     0.35250
C4060       C  0.44882655  0.73187973  0.67160481     0.35250
N4061       N  0.51828127  0.76994797  0.54480783    -0.39570
N4062       N  0.43811979  0.72390628  0.69312272    -0.39570
N4063       N  0.55051827  0.71865968  0.60929973    -0.39020
N4064       N  0.41234340  0.79426354  0.64935901    -0.39020
loop_ 
_geom_bond_atom_site_label_1 
_geom_bond_atom_site_label_2 
_geom_bond_distance 
_geom_bond_site_symmetry_2 
_ccdc_geom_bond_type 
Zr1           O2   2.435       .  S
Zr1           O3   2.477       .  S
Zr1           O4   2.458       .  S
Zr1           O7   2.385       .  S
Zr1           O9   2.376       .  S
Zr1          O10   2.413       .  S
Zr1          O11   2.415       .  S
Zr1          O12   2.436       .  S
O2           H58   0.990       .  S
O2         H2098   0.990       .  S
O3           C23   1.288       .  A
O4           C25   1.272       .  A
O5          Zr15   2.481       .  S
O5           C24   1.288       .  A
O6          Zr14   2.371       .  S
O6           C25   1.260       .  A
O7           C24   1.270       .  A
O8          Zr16   2.518       .  S
O8           C23   1.295       .  A
O9          Zr14   2.411       .  S
O9          Zr16   2.384       .  S
O10         Zr15   2.447       .  S
O10         Zr16   2.318       .  S
O10          H45   0.965       .  S
O11         Zr14   2.397       .  S
O11         Zr31   2.383       .  S
O11          H48   0.958       .  S
O12         Zr15   2.426       .  S
O12         Zr31   2.390       .  S
Zr13         O38   2.422       .  S
Zr13         O32   2.581       .  S
Zr13         O40   2.354       .  S
Zr13         O28   2.479       .  S
Zr13         O19   2.464       .  S
Zr13         O20   2.409       .  S
Zr13         O21   2.336       .  S
Zr13         O22   2.377       .  S
Zr14         O33   2.444       .  S
Zr14         O26   2.431       .  S
Zr14         O27   2.372       .  S
Zr14         O20   2.374       .  S
Zr14         O21   2.397       .  S
Zr15         O17   2.434       .  S
Zr15         O39   2.435       .  S
Zr15         O41   2.548       .  S
Zr15         O19   2.380       .  S
Zr15         O22   2.407       .  S
Zr16         O42   2.435       .  S
Zr16         O43   2.435       .  S
Zr16         O18   2.438       .  S
Zr16         O19   2.452       .  S
Zr16         O20   2.389       .  S
O17          H54   0.990       .  S
O18          H49   0.990       .  S
O18          H63   0.990       .  S
O20          H46   0.960       .  S
O21         Zr31   2.412       .  S
O22         Zr31   2.376       .  S
O22          H47   0.966       .  S
C23        C1977   1.554       .  S
C24        C2005   1.487       .  S
C25        C1991   1.496       .  S
O26          H62   0.991       .  S
O27          C29   1.270       .  A
O28          C29   1.294       .  A
C29        C2022   1.472       .  S
O30       Zr2063   2.436       .  S
O30          H59   0.990       .  S
Zr31         O35   2.438       .  S
Zr31       O2062   2.436   1_554  S
Zr31       O2066   2.439   1_554  S
Zr31         O36   2.417       .  S
O32          C37   1.314       .  A
O33          H50   0.989       .  S
O33          H65   0.988       .  S
O34       Zr2063   2.439       .  S
O34          H51   0.990       .  S
O35          H64   0.990       .  S
O35        H2087   0.990   1_554  S
O36          C37   1.275       .  A
C37        C2340   1.532       .  S
O38          H57   0.989       .  S
O38          H61   0.985       .  S
O39          H53   0.990       .  S
O39          H60   0.990       .  S
O40          C44   1.262       .  A
O41          C44   1.302       .  A
O42          H52   0.990       .  S
O43          H56   0.990       .  S
C44         C359   1.491       .  S
H55        O2067   0.990       .  S
H66        O2034   0.990       .  S
Zr67         O68   2.433       .  S
Zr67         O69   2.415       .  S
Zr67         O70   2.458       .  S
Zr67         O73   2.403       .  S
Zr67         O75   2.379       .  S
Zr67         O76   2.398       .  S
Zr67         O77   2.408       .  S
Zr67         O78   2.424       .  S
O68         H124   0.990       .  S
O68         H132   0.990       .  S
O69          C89   1.279       .  A
O70          C91   1.271       .  A
O71         Zr81   2.417       .  S
O71          C90   1.282       .  A
O72         Zr80   2.369       .  S
O72          C91   1.260       .  A
O73          C90   1.284       .  A
O74         Zr82   2.537       .  S
O74          C89   1.300       .  A
O75         Zr80   2.398       .  S
O75         Zr82   2.354       .  S
O76         Zr81   2.420       .  S
O76         Zr82   2.345       .  S
O76         H111   0.966       .  S
O77         Zr80   2.407       .  S
O77         Zr97   2.383       .  S
O77         H114   0.959       .  S
O78         Zr81   2.419       .  S
O78         Zr97   2.390       .  S
Zr79       O2136   2.440       .  S
Zr79         O98   2.571       .  S
Zr79        O106   2.343       .  S
Zr79         O94   2.408       .  S
Zr79         O85   2.445       .  S
Zr79         O86   2.431       .  S
Zr79         O87   2.346       .  S
Zr79         O88   2.383       .  S
Zr80         O99   2.441       .  S
Zr80         O92   2.427       .  S
Zr80         O93   2.355       .  S
Zr80         O86   2.390       .  S
Zr80         O87   2.379       .  S
Zr81         O83   2.434       .  S
Zr81        O105   2.435   1_554  S
Zr81        O107   2.480       .  S
Zr81         O85   2.377       .  S
Zr81         O88   2.408       .  S
Zr82       O2140   2.436   1_554  S
Zr82       O2141   2.435   1_554  S
Zr82       O2116   2.437       .  S
Zr82         O85   2.438       .  S
Zr82         O86   2.426       .  S
O83         H120   0.990       .  S
O84       Zr2114   2.436       .  S
O84         H115   0.990       .  S
O84        H2161   0.990       .  S
O86         H112   0.968       .  S
O87         Zr97   2.387       .  S
O88         Zr97   2.368       .  S
O88         H113   0.965       .  S
C89        C1963   1.547       .  S
C90        C1952   1.456   1_565  S
C91        C1935   1.489       .  S
O92         H128   0.990       .  S
O93          C95   1.254       .  A
O94          C95   1.273       .  A
C95        C2019   1.449       .  S
O96         Zr97   2.438       .  S
O96         H125   0.990       .  S
Zr97        O100   2.437       .  S
Zr97        O101   2.438       .  S
Zr97        O102   2.432       .  S
O98         C103   1.316       .  A
O99         H116   0.987       .  S
O99         H131   0.988       .  S
O100        H117   0.990       .  S
O101        H121   0.990       .  S
O101        H130   0.990       .  S
O102        C103   1.281       .  A
C103        C374   1.534       .  S
O104      Zr2111   2.440       .  S
O104        H123   0.989       .  S
O104        H127   0.990       .  S
O105        H119   0.990       .  S
O105        H126   0.990       .  S
O106        C110   1.252       .  A
O107        C110   1.283       .  A
O108      Zr2114   2.436       .  S
O108        H118   0.990       .  S
O109      Zr2114   2.435       .  S
O109        H122   0.990       .  S
C110       C2325   1.454       .  S
H129       O2116   0.990       .  S
Zr133       O134   2.435       .  S
Zr133       O135   2.462       .  S
Zr133       O136   2.435       .  S
Zr133       O139   2.369       .  S
Zr133       O141   2.380       .  S
Zr133       O142   2.397       .  S
Zr133       O143   2.423       .  S
Zr133       O144   2.428       .  S
O134        H190   0.990       .  S
O134        H198   0.990       .  S
O135        C155   1.287       .  A
O136        C157   1.270       .  A
O137       Zr147   2.466       .  S
O137        C156   1.288       .  A
O138       Zr146   2.357       .  S
O138        C157   1.260       .  A
O139        C156   1.276       .  A
O140       Zr148   2.513       .  S
O140        C155   1.297       .  A
O141       Zr146   2.390       .  S
O141       Zr148   2.360       .  S
O142       Zr147   2.433       .  S
O142       Zr148   2.346       .  S
O142        H177   0.966       .  S
O143       Zr146   2.398       .  S
O143       Zr163   2.375       .  S
O143        H180   0.959       .  S
O144       Zr147   2.414       .  S
O144       Zr163   2.397       .  S
Zr145       O170   2.434       .  S
Zr145       O164   2.559       .  S
Zr145       O172   2.338       .  S
Zr145       O160   2.428       .  S
Zr145       O151   2.441       .  S
Zr145       O152   2.415       .  S
Zr145       O153   2.338       .  S
Zr145       O154   2.380       .  S
Zr146       O165   2.435       .  S
Zr146       O158   2.430       .  S
Zr146       O159   2.334       .  S
Zr146       O152   2.387       .  S
Zr146       O153   2.385       .  S
Zr147       O149   2.435       .  S
Zr147       O171   2.434       .  S
Zr147       O173   2.518       .  S
Zr147       O151   2.376       .  S
Zr147       O154   2.412       .  S
Zr148       O174   2.437       .  S
Zr148       O175   2.436       .  S
Zr148       O150   2.436       .  S
Zr148       O151   2.427       .  S
Zr148       O152   2.417       .  S
O149        H186   0.990       .  S
O150        H181   0.990       .  S
O150        H195   0.990       .  S
O152        H178   0.967       .  S
O153       Zr163   2.390       .  S
O154       Zr163   2.365       .  S
O154        H179   0.966       .  S
C155       C1879   1.535       .  S
C156       C1896   1.476   1_565  S
C157       C1910   1.454       .  S
O158        H194   0.991       .  S
O159        C161   1.255       .  A
O160        C161   1.278       .  A
C161       C1921   1.445       .  S
O162       Zr163   2.439       .  S
O162        H191   0.990       .  S
Zr163       O166   2.437       .  S
Zr163       O167   2.436       .  S
Zr163       O168   2.428       .  S
O164        C169   1.313       .  A
O165        H182   0.988       .  S
O165        H197   0.988       .  S
O166        H183   0.990       .  S
O167        H187   0.990       .  S
O167        H196   0.990       .  S
O168        C169   1.279       .  A
C169        C354   1.529       .  S
O170        H189   0.991       .  S
O170        H193   0.989       .  S
O171        H185   0.990       .  S
O171        H192   0.990       .  S
O172        C176   1.257       .  A
O173        C176   1.296       .  A
O174        H184   0.990       .  S
O175        H188   0.990       .  S
C176        C289   1.468       .  S
Zr199       O200   2.436       .  S
Zr199       O201   2.423       .  S
Zr199       O202   2.457       .  S
Zr199       O205   2.377       .  S
Zr199       O207   2.375       .  S
Zr199       O208   2.402       .  S
Zr199       O209   2.414       .  S
Zr199       O210   2.425       .  S
O200        H256   0.990       .  S
O200        H264   0.989       .  S
O201        C221   1.278       .  A
O202        C223   1.270       .  A
O203       Zr213   2.396       .  S
O203        C222   1.276       .  A
O204       Zr212   2.376       .  S
O204        C223   1.260       .  A
O205        C222   1.281       .  A
O206       Zr214   2.555       .  S
O206        C221   1.304       .  A
O207       Zr212   2.413       .  S
O207       Zr214   2.354       .  S
O208       Zr213   2.437       .  S
O208       Zr214   2.336       .  S
O208        H243   0.966       .  S
O209       Zr212   2.409       .  S
O209       Zr229   2.369       .  S
O209        H246   0.957       .  S
O210       Zr213   2.433       .  S
O210       Zr229   2.380       .  S
Zr211       O236   2.416       .  S
Zr211       O230   2.580       .  S
Zr211       O238   2.354       .  S
Zr211       O226   2.452       .  S
Zr211       O217   2.461       .  S
Zr211       O218   2.414       .  S
Zr211       O219   2.332       .  S
Zr211       O220   2.360       .  S
Zr212       O231   2.442       .  S
Zr212       O224   2.431       .  S
Zr212       O225   2.382       .  S
Zr212       O218   2.373       .  S
Zr212       O219   2.395       .  S
Zr213       O215   2.435       .  S
Zr213       O237   2.434       .  S
Zr213       O239   2.513       .  S
Zr213       O217   2.364       .  S
Zr213       O220   2.383       .  S
Zr214       O240   2.436       .  S
Zr214       O241   2.435       .  S
Zr214       O216   2.437       .  S
Zr214       O217   2.475       .  S
Zr214       O218   2.406       .  S
O215        H252   0.990       .  S
O216        H247   0.990       .  S
O216        H261   0.990       .  S
O218        H244   0.961       .  S
O219       Zr229   2.412       .  S
O220       Zr229   2.378       .  S
O220        H245   0.965       .  S
C221       C1837   1.546       .  S
C222       C1868   1.444       .  S
C223       C1854   1.490       .  S
O224        H260   0.991       .  S
O225        C227   1.269       .  A
O226        C227   1.289       .  A
C227       C1924   1.462       .  S
O228       Zr229   2.437       .  S
O228        H257   0.990       .  S
Zr229       O232   2.438       .  S
Zr229       O233   2.434       .  S
Zr229       O234   2.396       .  S
O230        C235   1.314       .  A
O231        H248   0.987       .  S
O231        H263   0.988       .  S
O232        H249   0.990       .  S
O233        H253   0.990       .  S
O233        H262   0.990       .  S
O234        C235   1.271       .  A
C235        C288   1.520       .  S
O236        H255   0.989       .  S
O236        H259   0.988       .  S
O237        H251   0.990       .  S
O237        H258   0.990       .  S
O238        C242   1.263       .  A
O239        C242   1.294       .  A
O240        H250   0.990       .  S
O241        H254   0.990       .  S
C242        C355   1.477       .  S
Zr265       O266   2.421       .  S
Zr265       O267   2.387       .  S
Zr265       O268   2.480       .  S
Zr265       O271   2.406       .  S
Zr265       O273   2.360       .  S
Zr265       O274   2.392       .  S
Zr265       O275   2.384       .  S
Zr265       O276   2.405       .  S
O266        H322   0.990       .  S
O266        H330   0.989       .  S
O267        C287   1.275       .  A
O268        C289   1.297       .  A
O269       Zr279   2.574       .  S
O269        C288   1.317       .  A
O270       Zr278   2.391       .  S
O270        C289   1.269       .  A
O271        C288   1.276       .  A
O272       Zr280   2.427       .  S
O272        C287   1.281       .  A
O273       Zr278   2.402       .  S
O273       Zr280   2.392       .  S
O274       Zr279   2.388       .  S
O274       Zr280   2.372       .  S
O274        H309   0.965       .  S
O275       Zr278   2.400       .  S
O275      Zr2327   2.397       .  S
O275        H312   0.965       .  S
O276       Zr279   2.405       .  S
O276      Zr2327   2.388       .  S
Zr277       O302   2.444       .  S
Zr277      O2328   2.380       .  S
Zr277      O2336   2.428       .  S
Zr277      O2324   2.466       .  S
Zr277       O283   2.412       .  S
Zr277       O284   2.397       .  S
Zr277       O285   2.365       .  S
Zr277       O286   2.394       .  S
Zr278       O297   2.441       .  S
Zr278       O290   2.435       .  S
Zr278       O291   2.378       .  S
Zr278       O284   2.407       .  S
Zr278       O285   2.399       .  S
Zr279       O281   2.435       .  S
Zr279       O303   2.436       .  S
Zr279       O305   2.570       .  S
Zr279       O283   2.418       .  S
Zr279       O286   2.392       .  S
Zr280       O306   2.435       .  S
Zr280       O307   2.440       .  S
Zr280       O282   2.437       .  S
Zr280       O283   2.401       .  S
Zr280       O284   2.398       .  S
O281        H318   0.990       .  S
O282        H313   0.990       .  S
O282        H327   0.990       .  S
O284        H310   0.965       .  S
O285      Zr2327   2.386       .  S
O286      Zr2327   2.381       .  S
O286       H2343   0.965       .  S
C287        C353   1.452       .  S
O290        H326   0.990       .  S
O291        C293   1.267       .  A
O292      Zr2309   2.466       .  S
O292       C2325   1.293       .  A
C293       O2324   1.293       .  A
C293       C2142   1.454       .  S
O294      Zr2327   2.439       .  S
O294       H2355   0.990       .  S
Zr295       O298   2.438   1_556  S
Zr295       O299   2.437   1_556  S
Zr295      O2326   2.439       .  S
Zr295       O300   2.414   1_556  S
Zr295      O2307   2.397       .  S
Zr295      O2308   2.388       .  S
Zr295      O2317   2.386   1_556  S
Zr295      O2318   2.381       .  S
O296      Zr2309   2.380       .  S
O296        C301   1.271       .  A
O297        H314   0.990       .  S
O297        H329   0.990       .  S
O298        H315   0.990       .  S
O299        H319   0.990       .  S
O299        H328   0.990       .  S
O300        C301   1.279       .  A
C301        C367   1.444       .  S
O302        H321   0.990       .  S
O302        H325   0.990       .  S
O303        H317   0.990       .  S
O303        H324   0.990       .  S
O304      Zr2309   2.428       .  S
O304       C2340   1.277       .  A
O305        C308   1.314       .  A
O306        H316   0.990       .  S
O307        H320   0.990       .  S
C308       O2336   1.277       .  A
C308       C2069   1.532       .  S
H311       O2318   0.965   1_554  S
H323       O2326   0.990       .  S
Zr331       O332   2.430       .  S
Zr331       O333   2.403       .  S
Zr331       O334   2.465       .  S
Zr331       O337   2.426       .  S
Zr331       O339   2.376       .  S
Zr331       O340   2.387       .  S
Zr331       O341   2.390       .  S
Zr331       O342   2.396       .  S
O332        H388   0.987       .  S
O332        H396   0.989       .  S
O333        C353   1.283       .  A
O334        C355   1.296       .  A
O335       Zr345   2.578       .  S
O335        C354   1.318       .  A
O336       Zr344   2.434       .  S
O336        C355   1.281       .  A
O337        C354   1.282       .  A
O338       Zr346   2.418       .  S
O338        C353   1.280       .  A
O339       Zr344   2.405       .  S
O339       Zr346   2.385       .  S
O340       Zr345   2.385       .  S
O340       Zr346   2.373       .  S
O340        H375   0.965       .  S
O341       Zr344   2.401       .  S
O341       Zr361   2.384       .  S
O341        H378   0.965       .  S
O342       Zr345   2.398       .  S
O342       Zr361   2.388       .  S
Zr343       O368   2.425       .  S
Zr343       O362   2.406       .  S
Zr343       O370   2.433       .  S
Zr343       O358   2.474       .  S
Zr343       O349   2.399       .  S
Zr343       O350   2.390       .  S
Zr343       O351   2.372       .  S
Zr343       O352   2.388       .  S
Zr344       O363   2.436       .  S
Zr344       O356   2.435       .  S
Zr344       O357   2.450       .  S
Zr344       O350   2.394       .  S
Zr344       O351   2.396       .  S
Zr345       O347   2.434       .  S
Zr345       O369   2.435       .  S
Zr345       O371   2.584       .  S
Zr345       O349   2.394       .  S
Zr345       O352   2.380       .  S
Zr346       O372   2.435       .  S
Zr346       O373   2.438       .  S
Zr346       O348   2.438       .  S
Zr346       O349   2.394       .  S
Zr346       O350   2.394       .  S
O347        H384   0.990       .  S
O348        H379   0.990       .  S
O348        H393   0.990       .  S
O350        H376   0.965       .  S
O351       Zr361   2.390       .  S
O352       Zr361   2.376       .  S
O352        H377   0.965       .  S
O356        H392   0.990       .  S
O357        C359   1.284       .  A
O358        C359   1.298       .  A
O360       Zr361   2.437       .  S
O360        H389   0.990       .  S
Zr361       O364   2.435       .  S
Zr361       O365   2.438       .  S
Zr361       O366   2.398       .  S
O362        C367   1.285       .  A
O363        H380   0.990       .  S
O363        H395   0.990       .  S
O364        H381   0.990       .  S
O365        H385   0.990       .  S
O365        H394   0.990       .  S
O366        C367   1.276       .  A
O368        H387   0.989       .  S
O368        H391   0.990       .  S
O369        H383   0.990       .  S
O369        H390   0.990       .  S
O370        C374   1.285       .  A
O371        C374   1.320       .  A
O372        H382   0.990       .  S
O373        H386   0.990       .  S
Zr397       O398   2.438       .  S
Zr397       O399   2.434       .  S
Zr397       O400   2.399       .  S
Zr397       O403   2.484       .  S
Zr397       O405   2.396       .  S
Zr397       O406   2.375       .  S
Zr397       O407   2.425       .  S
Zr397       O408   2.361       .  S
O398        H454   0.982       .  S
O398        H462   0.989       .  S
O399        C419   1.286       .  A
O400        C421   1.282       .  A
O401       Zr411   2.396       .  S
O401        C420   1.260       .  A
O402       Zr410   2.427       .  S
O402        C421   1.283       .  A
O403        C420   1.285       .  A
O404       Zr412   2.518       .  S
O404        C419   1.299       .  A
O405       Zr410   2.413       .  S
O405       Zr412   2.354       .  S
O406       Zr411   2.386       .  S
O406       Zr412   2.363       .  S
O406        H441   0.966       .  S
O407       Zr410   2.431       .  S
O407       Zr427   2.393       .  S
O407        H444   0.965       .  S
O408       Zr411   2.383       .  S
O408       Zr427   2.359       .  S
Zr409       O434   2.434       .  S
Zr409       O428   2.546       .  S
Zr409       O436   2.432       .  S
Zr409       O424   2.344       .  S
Zr409       O415   2.407       .  S
Zr409       O416   2.448       .  S
Zr409       O417   2.356       .  S
Zr409       O418   2.336       .  S
Zr410       O429   2.435       .  S
Zr410       O422   2.436       .  S
Zr410       O423   2.505       .  S
Zr410       O416   2.381       .  S
Zr410       O417   2.393       .  S
Zr411       O413   2.440       .  S
Zr411       O435   2.451       .  S
Zr411       O437   2.372       .  S
Zr411       O415   2.353       .  S
Zr411       O418   2.425       .  S
Zr412       O438   2.434       .  S
Zr412       O439   2.436       .  S
Zr412       O414   2.437       .  S
Zr412       O415   2.417       .  S
Zr412       O416   2.442       .  S
O413        H450   0.990       .  S
O414        H445   0.990       .  S
O414        H459   0.990       .  S
O416        H442   0.965       .  S
O417       Zr427   2.376       .  S
O418       Zr427   2.412       .  S
O418        H443   0.965       .  S
C419       C1795   1.539       .  S
C420       C1812   1.496       .  S
C421       C1938   1.458       .  S
O422        H458   0.990       .  S
O423        C425   1.295       .  A
O424        C425   1.268       .  A
C425        C704   1.471       .  S
O426       Zr427   2.439       .  S
O426        H455   0.990       .  S
Zr427       O430   2.438       .  S
Zr427       O431   2.442       .  S
Zr427       O432   2.404       .  S
O428        C433   1.305       .  A
O429        H446   0.990       .  S
O429        H461   0.989       .  S
O430        H447   0.990       .  S
O431        H451   0.990       .  S
O431        H460   0.990       .  S
O432        C433   1.274       .  A
C433        C751   1.514       .  S
O434        H453   0.988       .  S
O434        H457   0.990       .  S
O435        H449   0.989       .  S
O435        H456   0.990       .  S
O436        C440   1.286       .  A
O437        C440   1.268       .  A
O438        H448   0.990       .  S
O439        H452   0.990       .  S
C440       C1823   1.470       .  S
Zr463       O464   2.450       .  S
Zr463       O465   2.420       .  S
Zr463       O466   2.422       .  S
Zr463       O469   2.483       .  S
Zr463       O471   2.393       .  S
Zr463       O472   2.448       .  S
Zr463       O473   2.451       .  S
Zr463       O474   2.411       .  S
O464        H520   0.988       .  S
O464        H528   0.984       .  S
O465        C485   1.281       .  A
O466        C487   1.264   1_655  A
O467       Zr477   2.312       .  S
O467        C486   1.239       .  A
O468       Zr476   2.464       .  S
O468        C487   1.278   1_655  A
O469        C486   1.260       .  A
O470       Zr478   2.560       .  S
O470        C485   1.307       .  A
O471       Zr476   2.432       .  S
O471       Zr478   2.340       .  S
O472       Zr477   2.428       .  S
O472       Zr478   2.351       .  S
O472        H507   0.981       .  S
O473       Zr476   2.449       .  S
O473       Zr493   2.392       .  S
O473        H510   0.966       .  S
O474       Zr477   2.394       .  S
O474       Zr493   2.396       .  S
Zr475       O500   2.450       .  S
Zr475       O494   2.577       .  S
Zr475       O502   2.401       .  S
Zr475       O490   2.324       .  S
Zr475       O481   2.446       .  S
Zr475       O482   2.476       .  S
Zr475       O483   2.380       .  S
Zr475       O484   2.366       .  S
Zr476       O495   2.439       .  S
Zr476       O488   2.434       .  S
Zr476       O489   2.534       .  S
Zr476       O482   2.402       .  S
Zr476       O483   2.407       .  S
Zr477       O479   2.440       .  S
Zr477       O501   2.437       .  S
Zr477       O503   2.372       .  S
Zr477       O481   2.365       .  S
Zr477       O484   2.400       .  S
Zr478       O504   2.436       .  S
Zr478       O505   2.435       .  S
Zr478       O480   2.437       .  S
Zr478       O481   2.448       .  S
Zr478       O482   2.429       .  S
O479        H516   0.989       .  S
O480        H511   0.990       .  S
O480        H525   0.990       .  S
O482        H508   0.966       .  S
O483       Zr493   2.370       .  S
O484       Zr493   2.391       .  S
O484        H509   0.950       .  S
C485       C1767   1.536   1_655  S
C486       C1781   1.465       .  S
C487       C1907   1.456       .  S
O488        H524   0.990       .  S
O489        C491   1.293       .  A
O490        C491   1.244       .  A
C491        C750   1.466       .  S
O492       Zr493   2.435       .  S
O492        H521   0.990       .  S
Zr493       O496   2.439       .  S
Zr493       O497   2.442       .  S
Zr493       O498   2.423       .  S
O494        C499   1.316       .  A
O495        H512   0.990       .  S
O495        H527   0.990       .  S
O496        H513   0.990       .  S
O497        H517   0.989       .  S
O497        H526   0.990       .  S
O498        C499   1.277       .  A
C499        C689   1.534       .  S
O500        H519   0.990       .  S
O500        H523   0.988       .  S
O501        H515   0.986       .  S
O501        H522   0.989       .  S
O502        C506   1.261       .  A
O503        C506   1.262       .  A
O504        H514   0.990       .  S
O505        H518   0.990       .  S
C506       C1826   1.467       .  S
Zr529      O2562   2.374       .  S
Zr529       O531   2.431       .  S
Zr529       O532   2.438       .  S
Zr529       O535   2.489       .  S
Zr529       O537   2.374       .  S
Zr529       O538   2.368       .  S
Zr529       O539   2.428       .  S
Zr529       O540   2.311       .  S
O530      Zr2561   2.373       .  S
O530        H586   0.980       .  S
O530        H594   0.984   1_556  S
O531        C551   1.283       .  A
O532        C553   1.274       .  A
O533       Zr543   2.354       .  S
O533        C552   1.271       .  A
O534       Zr542   2.433       .  S
O534        C553   1.276       .  A
O535        C552   1.298       .  A
O536       Zr544   2.574       .  S
O536        C551   1.308       .  A
O537       Zr542   2.427       .  S
O537       Zr544   2.360       .  S
O538       Zr543   2.381       .  S
O538       Zr544   2.359       .  S
O538        H573   0.963       .  S
O539       Zr542   2.444       .  S
O539       Zr559   2.386       .  S
O539        H576   0.962       .  S
O540       Zr543   2.337       .  S
O540       Zr559   2.339       .  S
Zr541       O566   2.453       .  S
Zr541       O560   2.588       .  S
Zr541       O568   2.394       .  S
Zr541       O556   2.337       .  S
Zr541       O547   2.441       .  S
Zr541       O548   2.464       .  S
Zr541       O549   2.369       .  S
Zr541       O550   2.349       .  S
Zr542       O561   2.441       .  S
Zr542       O554   2.434       .  S
Zr542       O555   2.500       .  S
Zr542       O548   2.395       .  S
Zr542       O549   2.402       .  S
Zr543       O567   2.443       .  S
Zr543      O2577   2.431       .  S
Zr543       O569   2.373       .  S
Zr543       O547   2.351       .  S
Zr543       O550   2.414       .  S
Zr544       O570   2.434       .  S
Zr544       O571   2.436       .  S
Zr544       O546   2.439       .  S
Zr544       O547   2.449       .  S
Zr544       O548   2.462       .  S
O545      Zr2575   2.431       .  S
O545       H2614   0.990       .  S
O546        H577   0.990       .  S
O546        H591   0.990       .  S
O548        H574   0.965       .  S
O549       Zr559   2.373       .  S
O550       Zr559   2.414       .  S
O550        H575   0.965       .  S
C551       C1725   1.567       .  S
C552       C3771   1.457       .  S
C553       C1994   1.473       .  S
O554        H590   0.990       .  S
O555        C557   1.291       .  A
O556        C557   1.255       .  A
C557        C684   1.459       .  S
O558      Zr2591   2.439   1_554  S
O558        H587   0.990       .  S
Zr559      O2590   2.439       .  S
Zr559      O2594   2.436       .  S
Zr559      O2595   2.439       .  S
Zr559       O564   2.385       .  S
O560        C565   1.317       .  A
O561        H578   0.990       .  S
O561        H593   0.990       .  S
O562      Zr2591   2.436   1_554  S
O562        H579   0.990       .  S
O563      Zr2591   2.439   1_554  S
O563        H583   0.990       .  S
O563        H592   0.990       .  S
O564        C565   1.269       .  A
C565       C2787   1.524       .  S
O566        H585   0.991       .  S
O566        H589   0.988       .  S
O567        H581   0.990       .  S
O567        H588   0.990       .  S
O568        C572   1.274       .  A
O569        C572   1.265       .  A
O570        H580   0.990       .  S
O571        H584   0.990       .  S
C572       C1753   1.436       .  S
H582       O2577   0.990       .  S
Zr595       O596   2.432   1_655  S
Zr595       O597   2.458   1_655  S
Zr595       O598   2.436   1_655  S
Zr595       O601   2.521       .  S
Zr595       O603   2.383       .  S
Zr595       O604   2.377       .  S
Zr595       O605   2.441       .  S
Zr595       O606   2.299       .  S
O596        H652   0.988       .  S
O596        H660   0.984       .  S
O597        C617   1.287       .  A
O598        C619   1.271       .  A
O599       Zr609   2.392       .  S
O599        C618   1.280       .  A
O600       Zr608   2.438       .  S
O600        C619   1.277   1_655  A
O601        C618   1.305       .  A
O602       Zr610   2.526       .  S
O602       C2649   1.300   1_654  A
O603       Zr608   2.426       .  S
O603      Zr2642   2.369       .  S
O604       Zr609   2.400       .  S
O604      Zr2642   2.378       .  S
O604        H639   0.964       .  S
O605       Zr608   2.442       .  S
O605       Zr625   2.411       .  S
O605        H642   0.956       .  S
O606       Zr609   2.287       .  S
O606       Zr625   2.348       .  S
Zr607      O2664   2.439       .  S
Zr607       O626   2.547       .  S
Zr607       O634   2.406       .  S
Zr607      O2654   2.359       .  S
Zr607       O613   2.430       .  S
Zr607       O615   2.363       .  S
Zr607       O616   2.341       .  S
Zr607      O2646   2.439       .  S
Zr608       O627   2.437       .  S
Zr608      O2652   2.435       .  S
Zr608      O2653   2.483       .  S
Zr608       O615   2.399       .  S
Zr608      O2646   2.399       .  S
Zr609       O611   2.436       .  S
Zr609       O633   2.426       .  S
Zr609       O635   2.369       .  S
Zr609       O613   2.369       .  S
Zr609       O616   2.413       .  S
Zr610       O636   2.434       .  S
Zr610       O637   2.437       .  S
Zr610       O612   2.439       .  S
Zr610       O614   2.445   1_554  S
Zr610      O2635   2.369   1_554  S
Zr610      O2636   2.378   1_554  S
Zr610      O2645   2.437   1_554  S
O611        H648   0.990       .  S
O612        H643   0.990       .  S
O612        H657   0.990       .  S
O613      Zr2642   2.437       .  S
O614      Zr2639   2.439       .  S
O614      Zr2640   2.399       .  S
O614        H640   0.966   1_556  S
O615       Zr625   2.354       .  S
O616       Zr625   2.413       .  S
O616        H641   0.965       .  S
C617       O2634   1.300   1_455  A
C617       C1697   1.543       .  S
C618       C1711   1.489       .  S
C619       C1851   1.467       .  S
O620      Zr2640   2.435   1_554  S
O620        H656   0.990       .  S
O621      Zr2640   2.483   1_554  S
O621        C623   1.292   1_554  A
O622      Zr2639   2.359       .  S
O622        C623   1.269       .  A
C623        C770   1.465   1_556  S
O624       Zr625   2.431       .  S
O624        H653   0.990       .  S
Zr625       O628   2.434       .  S
Zr625       O629   2.437       .  S
Zr625       O630   2.409       .  S
O626        C631   1.308       .  A
O627        H644   0.990       .  S
O627        H659   0.990       .  S
O628        H645   0.990       .  S
O629        H649   0.990       .  S
O629        H658   0.989       .  S
O630        C631   1.274       .  A
C631        C685   1.520       .  S
O632      Zr2639   2.439       .  S
O632        H651   0.988   1_556  S
O632        H655   0.990   1_556  S
O633        H647   0.990       .  S
O633        H654   0.988       .  S
O634        C638   1.282       .  A
O635        C638   1.267       .  A
O636        H646   0.990       .  S
O637        H650   0.990       .  S
C638       C1756   1.440       .  S
Zr661       O662   2.443       .  S
Zr661       O663   2.390       .  S
Zr661       O664   2.444       .  S
Zr661       O667   2.458       .  S
Zr661       O669   2.390       .  S
Zr661       O670   2.375       .  S
Zr661       O671   2.414       .  S
Zr661       O672   2.391       .  S
O662        H718   0.991       .  S
O662        H726   0.990       .  S
O663        C683   1.275       .  A
O664        C685   1.282       .  A
O665       Zr675   2.392       .  S
O665        C684   1.270       .  A
O666       Zr674   2.543       .  S
O666        C685   1.310       .  A
O667        C684   1.293       .  A
O668       Zr676   2.439       .  S
O668        C683   1.282       .  A
O669       Zr674   2.415       .  S
O669       Zr676   2.376       .  S
O670       Zr675   2.414       .  S
O670       Zr676   2.380       .  S
O670        H705   0.966       .  S
O671       Zr674   2.428       .  S
O671       Zr691   2.388       .  S
O671        H708   0.965       .  S
O672       Zr675   2.414       .  S
O672       Zr691   2.398       .  S
Zr673       O698   2.415       .  S
Zr673       O692   2.408       .  S
Zr673       O700   2.421       .  S
Zr673       O688   2.416       .  S
Zr673       O679   2.384       .  S
Zr673       O680   2.404       .  S
Zr673       O681   2.371       .  S
Zr673       O682   2.361       .  S
Zr674       O693   2.434       .  S
Zr674       O686   2.435       .  S
Zr674       O687   2.599       .  S
Zr674       O680   2.392       .  S
Zr674       O681   2.381       .  S
Zr675       O677   2.435       .  S
Zr675       O699   2.437       .  S
Zr675       O701   2.443       .  S
Zr675       O679   2.379       .  S
Zr675       O682   2.389       .  S
Zr676       O702   2.436       .  S
Zr676       O703   2.439       .  S
Zr676       O678   2.438       .  S
Zr676       O679   2.407       .  S
Zr676       O680   2.402       .  S
O677        H714   0.990       .  S
O678        H709   0.990       .  S
O678        H723   0.990       .  S
O680        H706   0.966       .  S
O681       Zr691   2.380       .  S
O682       Zr691   2.385       .  S
O682        H707   0.965       .  S
C683        C763   1.466       .  S
O686        H722   0.990       .  S
O687        C689   1.322       .  A
O688        C689   1.280       .  A
O690       Zr691   2.440       .  S
O690        H719   0.990       .  S
Zr691       O694   2.437       .  S
Zr691       O695   2.440       .  S
Zr691       O696   2.429       .  S
O692        C697   1.284       .  A
O693        H710   0.990       .  S
O693        H725   0.990       .  S
O694        H711   0.990       .  S
O695        H715   0.990       .  S
O695        H724   0.990       .  S
O696        C697   1.281       .  A
C697        C749   1.464       .  S
O698        H717   0.990       .  S
O698        H721   0.988       .  S
O699        H713   0.990       .  S
O699        H720   0.990       .  S
O700        C704   1.287       .  A
O701        C704   1.281       .  A
O702        H712   0.990       .  S
O703        H716   0.990       .  S
Zr727       O728   2.449       .  S
Zr727       O729   2.382       .  S
Zr727       O730   2.443       .  S
Zr727       O733   2.464       .  S
Zr727       O735   2.388       .  S
Zr727       O736   2.372       .  S
Zr727       O737   2.417       .  S
Zr727       O738   2.391       .  S
O728        H784   0.990       .  S
O728        H792   0.989       .  S
O729        C749   1.272       .  A
O730        C751   1.282       .  A
O731       Zr741   2.402       .  S
O731        C750   1.270       .  A
O732       Zr740   2.534       .  S
O732        C751   1.307       .  A
O733        C750   1.295       .  A
O734       Zr742   2.441       .  S
O734        C749   1.282       .  A
O735       Zr740   2.411       .  S
O735       Zr742   2.377       .  S
O736       Zr741   2.408       .  S
O736       Zr742   2.381       .  S
O736        H771   0.966       .  S
O737       Zr740   2.424       .  S
O737       Zr757   2.387       .  S
O737        H774   0.965       .  S
O738       Zr741   2.410       .  S
O738       Zr757   2.405       .  S
Zr739       O764   2.440       .  S
Zr739       O766   2.424       .  S
Zr739       O754   2.425   1_554  S
Zr739      O2790   2.407   1_554  S
Zr739       O745   2.394       .  S
Zr739       O746   2.407       .  S
Zr739       O747   2.379       .  S
Zr739       O748   2.370       .  S
Zr740       O759   2.435       .  S
Zr740       O752   2.435       .  S
Zr740       O753   2.566       .  S
Zr740       O746   2.406       .  S
Zr740       O747   2.386       .  S
Zr741       O743   2.436       .  S
Zr741       O765   2.436       .  S
Zr741       O767   2.416       .  S
Zr741       O745   2.395       .  S
Zr741       O748   2.398       .  S
Zr742       O768   2.435       .  S
Zr742       O769   2.435       .  S
Zr742       O744   2.436       .  S
Zr742       O745   2.407       .  S
Zr742       O746   2.400       .  S
O743        H780   0.990       .  S
O744        H775   0.990       .  S
O744        H789   0.990       .  S
O746        H772   0.966       .  S
O747       Zr757   2.381       .  S
O748       Zr757   2.383       .  S
O748        H773   0.965       .  S
O752        H788   0.990       .  S
O753        C755   1.316       .  A
O754        C755   1.278   1_556  A
C755       C2597   1.524   1_554  S
O756       Zr757   2.440       .  S
O756        H785   0.990       .  S
Zr757      O2792   2.438       .  S
Zr757      O2793   2.441       .  S
Zr757      O2794   2.432   1_554  S
O758      Zr2771   2.407       .  S
O758        C763   1.282       .  A
O759        H776   0.990       .  S
O759        H791   0.990       .  S
O760      Zr2789   2.438       .  S
O760        H777   0.990       .  S
O761      Zr2789   2.441       .  S
O761        H781   0.990       .  S
O761        H790   0.990       .  S
O762      Zr2789   2.432       .  S
O762        C763   1.281       .  A
O764        H783   0.990       .  S
O764        H787   0.991   1_554  S
O765        H779   0.990       .  S
O765        H786   0.990       .  S
O766        C770   1.287       .  A
O767        C770   1.277       .  A
O768        H778   0.990       .  S
O769        H782   0.990       .  S
Zr793       O794   2.438       .  S
Zr793       O795   2.442       .  S
Zr793       O796   2.431       .  S
Zr793       O799   2.340       .  S
Zr793       O801   2.376       .  S
Zr793       O802   2.422       .  S
Zr793       O803   2.411       .  S
Zr793       O804   2.430       .  S
O794        H850   0.987       .  S
O794        H858   0.989       .  S
O795        C815   1.284       .  A
O796        C817   1.273       .  A
O797       Zr807   2.524       .  S
O797        C816   1.303       .  A
O798       Zr806   2.402       .  S
O798        C817   1.268       .  A
O799        C816   1.257       .  A
O800       Zr808   2.558       .  S
O800        C815   1.305       .  A
O801       Zr806   2.394       .  S
O801       Zr808   2.365       .  S
O802       Zr807   2.395       .  S
O802       Zr808   2.315       .  S
O802        H837   0.967       .  S
O803       Zr806   2.395       .  S
O803       Zr823   2.382       .  S
O803        H840   0.958       .  S
O804       Zr807   2.410       .  S
O804       Zr823   2.410       .  S
Zr805       O830   2.431       .  S
Zr805       O824   2.604       .  S
Zr805       O832   2.340       .  S
Zr805       O820   2.419       .  S
Zr805       O811   2.445       .  S
Zr805       O812   2.426       .  S
Zr805       O813   2.351       .  S
Zr805       O814   2.389       .  S
Zr806       O825   2.438       .  S
Zr806       O818   2.426       .  S
Zr806       O819   2.371       .  S
Zr806       O812   2.397       .  S
Zr806       O813   2.397       .  S
Zr807       O809   2.434       .  S
Zr807       O831   2.434       .  S
Zr807       O833   2.527       .  S
Zr807       O811   2.401       .  S
Zr807       O814   2.419       .  S
Zr808       O834   2.436       .  S
Zr808       O835   2.435       .  S
Zr808       O810   2.437       .  S
Zr808       O811   2.440       .  S
Zr808       O812   2.419       .  S
O809        H846   0.990       .  S
O810        H841   0.990       .  S
O810        H855   0.990       .  S
O812        H838   0.966       .  S
O813       Zr823   2.392       .  S
O814       Zr823   2.366       .  S
O814        H839   0.965       .  S
C815       C1980   1.551       .  S
C816       C1742   1.490       .  S
C817       C1669   1.493       .  S
O818        H854   0.991       .  S
O819        C821   1.260       .  A
O820        C821   1.276       .  A
C821       C1686   1.460       .  S
O822      Zr2855   2.437       .  S
O822        H851   0.990       .  S
Zr823       O826   2.439   1_554  S
Zr823       O827   2.436       .  S
Zr823      O2854   2.437   1_554  S
Zr823       O828   2.438       .  S
O824        C829   1.322       .  A
O825        H842   0.989       .  S
O825        H857   0.987       .  S
O826       H2875   0.990       .  S
O827        H847   0.990   1_554  S
O827        H856   0.990       .  S
O828        C829   1.281       .  A
C829       C1080   1.553       .  S
O830        H849   0.987       .  S
O830        H853   0.991       .  S
O831        H845   0.990       .  S
O831        H852   0.990       .  S
O832        C836   1.249       .  A
O833        C836   1.290       .  A
O834        H844   0.990       .  S
O835        H848   0.990       .  S
C836       C1147   1.484       .  S
H843       O2858   0.990       .  S
Zr859       O860   2.430       .  S
Zr859       O861   2.423       .  S
Zr859       O862   2.458       .  S
Zr859       O865   2.400       .  S
Zr859       O867   2.386       .  S
Zr859       O868   2.394       .  S
Zr859       O869   2.418       .  S
Zr859       O870   2.422       .  S
O860        H916   0.990       .  S
O860        H924   0.989       .  S
O861        C881   1.282       .  A
O862        C883   1.276       .  A
O863       Zr873   2.447       .  S
O863        C882   1.289       .  A
O864       Zr872   2.373       .  S
O864        C883   1.261       .  A
O865        C882   1.285       .  A
O866       Zr874   2.530       .  S
O866       C2913   1.301       .  A
O867       Zr872   2.412       .  S
O867      Zr2906   2.361       .  S
O868       Zr873   2.413       .  S
O868      Zr2906   2.318       .  S
O868        H903   0.965       .  S
O869       Zr872   2.412       .  S
O869       Zr889   2.387       .  S
O869        H906   0.963       .  S
O870       Zr873   2.417       .  S
O870       Zr889   2.405       .  S
Zr871      O2928   2.420       .  S
Zr871       O890   2.568       .  S
Zr871       O886   2.463       .  S
Zr871      O2930   2.365       .  S
Zr871       O877   2.455       .  S
Zr871       O878   2.412       .  S
Zr871       O879   2.340       .  S
Zr871       O880   2.378       .  S
Zr872       O891   2.447       .  S
Zr872       O884   2.439       .  S
Zr872       O885   2.393       .  S
Zr872       O878   2.376       .  S
Zr872       O879   2.389       .  S
Zr873       O875   2.434       .  S
Zr873      O2929   2.436   1_554  S
Zr873       O899   2.486       .  S
Zr873       O877   2.382       .  S
Zr873       O880   2.409       .  S
Zr874       O900   2.437       .  S
Zr874       O901   2.435       .  S
Zr874       O876   2.437       .  S
Zr874      O2899   2.361       .  S
Zr874      O2900   2.318       .  S
Zr874      O2909   2.448       .  S
Zr874      O2910   2.397       .  S
O875        H912   0.990       .  S
O876        H907   0.990       .  S
O876        H921   0.990       .  S
O877      Zr2906   2.448       .  S
O878      Zr2906   2.397       .  S
O878       H2936   0.961       .  S
O879       Zr889   2.408       .  S
O880       Zr889   2.375       .  S
O880        H905   0.966       .  S
C881       O2898   1.301       .  A
C881       C1966   1.526       .  S
C882       C1809   1.476   1_545  S
C883       C1658   1.493       .  S
O884        H920   0.991       .  S
O885        C887   1.271       .  A
O886        C887   1.292       .  A
C887       C1683   1.481       .  S
O888       Zr889   2.440       .  S
O888        H917   0.990       .  S
Zr889       O892   2.437       .  S
Zr889       O893   2.438       .  S
Zr889       O894   2.433       .  S
O890        C895   1.311       .  A
O891        H908   0.988       .  S
O891        H923   0.988       .  S
O892        H909   0.990       .  S
O893        H913   0.990       .  S
O893        H922   0.990       .  S
O894        C895   1.280       .  A
C895       C1146   1.536       .  S
O896      Zr2903   2.420       .  S
O896        H915   0.985       .  S
O896        H919   0.989       .  S
O897      Zr2905   2.436       .  S
O897        H911   0.990       .  S
O897        H918   0.990       .  S
O898      Zr2903   2.365       .  S
O898        C902   1.261       .  A
O899       C2934   1.287       .  A
O900        H910   0.990       .  S
O901        H914   0.990       .  S
C902       O2931   1.287       .  A
C902       C3113   1.466       .  S
H904       O2910   0.961       .  S
Zr925       O926   2.415       .  S
Zr925       O927   2.417       .  S
Zr925       O928   2.446       .  S
Zr925       O931   2.418       .  S
Zr925       O933   2.375       .  S
Zr925       O934   2.397       .  S
Zr925       O935   2.421       .  S
Zr925       O936   2.425       .  S
O926        H982   0.986   1_545  S
O926        H990   0.986       .  S
O927        C947   1.279       .  A
O928        C949   1.269   1_655  A
O929       Zr939   2.441       .  S
O929        C948   1.284       .  A
O930       Zr938   2.378       .  S
O930        C949   1.259   1_655  A
O931        C948   1.278       .  A
O932       Zr940   2.551       .  S
O932        C947   1.304       .  A
O933       Zr938   2.385       .  S
O933       Zr940   2.343       .  S
O934       Zr939   2.426       .  S
O934       Zr940   2.361       .  S
O934        H969   0.966       .  S
O935       Zr938   2.404       .  S
O935       Zr955   2.403       .  S
O935        H972   0.963       .  S
O936       Zr939   2.423       .  S
O936       Zr955   2.393       .  S
Zr937       O962   2.440       .  S
Zr937       O956   2.543       .  S
Zr937       O964   2.338       .  S
Zr937       O952   2.425       .  S
Zr937       O943   2.443       .  S
Zr937       O944   2.414       .  S
Zr937       O945   2.329       .  S
Zr937       O946   2.365       .  S
Zr938       O957   2.436       .  S
Zr938       O950   2.432   1_655  S
Zr938       O951   2.340       .  S
Zr938       O944   2.379       .  S
Zr938       O945   2.395       .  S
Zr939       O941   2.436       .  S
Zr939       O963   2.437       .  S
Zr939       O965   2.510       .  S
Zr939       O943   2.386       .  S
Zr939       O946   2.392       .  S
Zr940       O966   2.437       .  S
Zr940       O967   2.434       .  S
Zr940       O942   2.435       .  S
Zr940       O943   2.447       .  S
Zr940       O944   2.442       .  S
O941        H978   0.990       .  S
O942        H973   0.990   1_655  S
O942        H987   0.990   1_655  S
O944        H970   0.966       .  S
O945       Zr955   2.378       .  S
O946       Zr955   2.377       .  S
O946        H971   0.966       .  S
C947       C1882   1.556   1_655  S
C948       C1784   1.465   1_545  S
C949       C1627   1.483       .  S
O950        H986   0.992       .  S
O951        C953   1.258       .  A
O952        C953   1.288       .  A
C953       C1641   1.459       .  S
O954       Zr955   2.435       .  S
O954        H983   0.990       .  S
Zr955       O958   2.436       .  S
Zr955       O959   2.433       .  S
Zr955       O960   2.449       .  S
O956        C961   1.306       .  A
O957        H974   0.987       .  S
O957        H989   0.987       .  S
O958        H975   0.990       .  S
O959        H979   0.990       .  S
O959        H988   0.990       .  S
O960        C961   1.283       .  A
C961       C1166   1.531       .  S
O962        H981   0.990       .  S
O962        H985   0.990       .  S
O963        H977   0.990       .  S
O963        H984   0.990       .  S
O964        C968   1.268       .  A
O965        C968   1.298       .  A
O966        H976   0.990       .  S
O967        H980   0.990       .  S
C968       C1085   1.474       .  S
Zr991       O992   2.440       .  S
Zr991       O993   2.491       .  S
Zr991       O994   2.433       .  S
Zr991       O997   2.358       .  S
Zr991       O999   2.361       .  S
Zr991      O1000   2.401       .  S
Zr991      O1001   2.389       .  S
Zr991      O1002   2.422       .  S
O992       H1048   0.986       .  S
O992       H1056   0.988       .  S
O993       C1013   1.287       .  A
O994       C1015   1.280       .  A
O995      Zr1005   2.551       .  S
O995       C1014   1.304       .  A
O996      Zr1004   2.342       .  S
O996       C1015   1.262       .  A
O997       C1014   1.259       .  A
O998      Zr1006   2.518       .  S
O998       C1013   1.297       .  A
O999      Zr1004   2.385       .  S
O999      Zr1006   2.376       .  S
O1000     Zr1005   2.426       .  S
O1000     Zr1006   2.333       .  S
O1000      H1035   0.965       .  S
O1001     Zr1004   2.395       .  S
O1001     Zr1021   2.377       .  S
O1001      H1038   0.965       .  S
O1002     Zr1005   2.399       .  S
O1002     Zr1021   2.391       .  S
Zr1003     O1028   2.425       .  S
Zr1003     O1022   2.493       .  S
Zr1003     O1030   2.350       .  S
Zr1003     O1018   2.401       .  S
Zr1003     O1009   2.442       .  S
Zr1003     O1010   2.415       .  S
Zr1003     O1011   2.330       .  S
Zr1003     O1012   2.385       .  S
Zr1004     O1023   2.440       .  S
Zr1004     O1016   2.428   1_655  S
Zr1004     O1017   2.397       .  S
Zr1004     O1010   2.362       .  S
Zr1004     O1011   2.372       .  S
Zr1005     O1007   2.434       .  S
Zr1005     O1029   2.433       .  S
Zr1005     O1031   2.566       .  S
Zr1005     O1009   2.391       .  S
Zr1005     O1012   2.422       .  S
Zr1006     O1032   2.436       .  S
Zr1006     O1033   2.435       .  S
Zr1006     O1008   2.435       .  S
Zr1006     O1009   2.425       .  S
Zr1006     O1010   2.420       .  S
O1007      H1044   0.990       .  S
O1008      H1039   0.990   1_655  S
O1008      H1053   0.990   1_655  S
O1010      H1036   0.964       .  S
O1011     Zr1021   2.390       .  S
O1012     Zr1021   2.380       .  S
O1012      H1037   0.966       .  S
C1013      C1840   1.546   1_655  S
C1014      C1714   1.504       .  S
C1015      C1613   1.430   1_655  S
O1016      H1052   0.989   1_455  S
O1017      C1019   1.272       .  A
O1018      C1019   1.278       .  A
C1019      C1644   1.476       .  S
O1020     Zr1021   2.438       .  S
O1020      H1049   0.990       .  S
Zr1021     O1024   2.440       .  S
Zr1021     O1025   2.437       .  S
Zr1021     O1026   2.407       .  S
O1022      C1027   1.295       .  A
O1023      H1040   0.990       .  S
O1023      H1055   0.990       .  S
O1024      H1041   0.990       .  S
O1025      H1045   0.990       .  S
O1025      H1054   0.990       .  S
O1026      C1027   1.273       .  A
C1027      C1100   1.491       .  S
O1028      H1047   0.989       .  S
O1028      H1051   0.985       .  S
O1029      H1043   0.990       .  S
O1029      H1050   0.990       .  S
O1030      C1034   1.258       .  A
O1031      C1034   1.304       .  A
O1032      H1042   0.990       .  S
O1033      H1046   0.990       .  S
C1034      C1151   1.497       .  S
Zr1057     O1058   2.430       .  S
Zr1057     O3091   2.399       .  S
Zr1057     O3092   2.455       .  S
Zr1057     O3095   2.457       .  S
Zr1057     O1065   2.383       .  S
Zr1057     O1067   2.394       .  S
Zr1057     O1068   2.393       .  S
Zr1057     O3098   2.380       .  S
O1058      H1122   0.989       .  S
O1058      H3146   0.983       .  S
O1059     Zr3089   2.399   1_554  S
O1059      C1079   1.282       .  A
O1060     Zr3089   2.455   1_554  S
O1060      C1081   1.293       .  A
O1061     Zr1071   2.594       .  S
O1061      C3112   1.320       .  A
O1062     Zr1070   2.417       .  S
O1062      C3113   1.278       .  A
O1063     Zr3089   2.457   1_554  S
O1063      C1080   1.289       .  A
O1064     Zr1072   2.391   1_554  S
O1064      C1079   1.279       .  A
O1065     Zr1070   2.391       .  S
O1065     Zr3104   2.379       .  S
O1066     Zr1072   2.375       .  S
O1066     Zr3089   2.380       .  S
O1066     Zr3103   2.351       .  S
O1066      H1101   0.964   1_556  S
O1067     Zr1070   2.392       .  S
O1067     Zr1087   2.398       .  S
O1067      H1104   0.966       .  S
O1068     Zr1071   2.385       .  S
O1068     Zr1087   2.409       .  S
Zr1069     O1094   2.438       .  S
Zr1069     O1088   2.394       .  S
Zr1069     O1096   2.396       .  S
Zr1069     O1084   2.447       .  S
Zr1069     O1075   2.402       .  S
Zr1069     O1076   2.380       .  S
Zr1069     O1077   2.366       .  S
Zr1069     O1078   2.393       .  S
Zr1070     O1089   2.438       .  S
Zr1070     O1082   2.436       .  S
Zr1070     O1083   2.418       .  S
Zr1070     O1076   2.397       .  S
Zr1070     O1077   2.397       .  S
Zr1071     O1073   2.433       .  S
Zr1071     O1095   2.435       .  S
Zr1071     O1097   2.522       .  S
Zr1071     O1075   2.421       .  S
Zr1071     O1078   2.398       .  S
Zr1071     O3098   2.351       .  S
Zr1072     O1098   2.435   1_556  S
Zr1072     O1099   2.439       .  S
Zr1072     O1074   2.437   1_556  S
Zr1072     O3097   2.379       .  S
Zr1072     O3107   2.385       .  S
Zr1072     O3108   2.380       .  S
O1073      H1110   0.990       .  S
O1074      H1105   0.990       .  S
O1074      H1119   0.990       .  S
O1075     Zr3104   2.385       .  S
O1076     Zr3104   2.380       .  S
O1076      H1102   0.966       .  S
O1077     Zr1087   2.374       .  S
O1078     Zr1087   2.363       .  S
O1078      H1103   0.965       .  S
C1079      C1145   1.436       .  S
C1080      O3093   1.320   1_554  A
C1081      O3094   1.278   1_554  A
C1081      C2934   1.466       .  S
O1082      H3150   0.990       .  S
O1083      C1085   1.278       .  A
O1084      C1085   1.293       .  A
O1086     Zr1087   2.440       .  S
O1086      H1115   0.990       .  S
Zr1087     O1090   2.439       .  S
Zr1087     O1091   2.437       .  S
Zr1087     O1092   2.437       .  S
O1088      C1093   1.276       .  A
O1089      H1106   0.990       .  S
O1089      H1121   0.990       .  S
O1090      H1107   0.990       .  S
O1091      H1111   0.990       .  S
O1091      H1120   0.990       .  S
O1092      C1093   1.287       .  A
C1093      C1159   1.458       .  S
O1094      H1113   0.990       .  S
O1094      H1117   0.990       .  S
O1095      H1109   0.990       .  S
O1095      H3148   0.990       .  S
O1096      C1100   1.279       .  A
O1097      C1100   1.305       .  A
O1098      H1108   0.990       .  S
O1099      H3144   0.990       .  S
H1112      O3131   0.990       .  S
H1114      O3090   0.983   1_554  S
H1116      O3127   0.990   1_554  S
H1118      O3114   0.990       .  S
Zr1123     O1124   2.438       .  S
Zr1123     O1125   2.386       .  S
Zr1123     O1126   2.512       .  S
Zr1123     O1129   2.451       .  S
Zr1123     O1131   2.382       .  S
Zr1123     O1132   2.395       .  S
Zr1123     O1133   2.391       .  S
Zr1123     O1134   2.400       .  S
O1124      H1180   0.988       .  S
O1124      H1188   0.990       .  S
O1125      C1145   1.278       .  A
O1126      C1147   1.306       .  A
O1127     Zr1137   2.575       .  S
O1127      C1146   1.317       .  A
O1128     Zr1136   2.405       .  S
O1128      C1147   1.274       .  A
O1129      C1146   1.288       .  A
O1130     Zr1138   2.405       .  S
O1130      C1145   1.281       .  A
O1131     Zr1136   2.398       .  S
O1131     Zr1138   2.379       .  S
O1132     Zr1137   2.365       .  S
O1132     Zr1138   2.368       .  S
O1132      H1167   0.964       .  S
O1133     Zr1136   2.404       .  S
O1133     Zr1153   2.393       .  S
O1133      H1170   0.966       .  S
O1134     Zr1137   2.401       .  S
O1134     Zr1153   2.388       .  S
Zr1135     O1160   2.436       .  S
Zr1135     O1154   2.440       .  S
Zr1135     O1162   2.451       .  S
Zr1135     O1150   2.495       .  S
Zr1135     O1141   2.407       .  S
Zr1135     O1142   2.390       .  S
Zr1135     O1143   2.373       .  S
Zr1135     O1144   2.395       .  S
Zr1136     O1155   2.438       .  S
Zr1136     O1148   2.435       .  S
Zr1136     O1149   2.427       .  S
Zr1136     O1142   2.390       .  S
Zr1136     O1143   2.398       .  S
Zr1137     O1139   2.434       .  S
Zr1137     O1161   2.436       .  S
Zr1137     O1163   2.556       .  S
Zr1137     O1141   2.402       .  S
Zr1137     O1144   2.387       .  S
Zr1138     O1164   2.435       .  S
Zr1138     O1165   2.438       .  S
Zr1138     O1140   2.437       .  S
Zr1138     O1141   2.388       .  S
Zr1138     O1142   2.389       .  S
O1139      H1176   0.990       .  S
O1140      H1171   0.990       .  S
O1140      H1185   0.990       .  S
O1142      H1168   0.965       .  S
O1143     Zr1153   2.386       .  S
O1144     Zr1153   2.377       .  S
O1144      H1169   0.965       .  S
O1148      H1184   0.990       .  S
O1149      C1151   1.277       .  A
O1150      C1151   1.300       .  A
O1152     Zr1153   2.439       .  S
O1152      H1181   0.990       .  S
Zr1153     O1156   2.435       .  S
Zr1153     O1157   2.439       .  S
Zr1153     O1158   2.394       .  S
O1154      C1159   1.289       .  A
O1155      H1172   0.990       .  S
O1155      H1187   0.990       .  S
O1156      H1173   0.990       .  S
O1157      H1177   0.990       .  S
O1157      H1186   0.990       .  S
O1158      C1159   1.277       .  A
O1160      H1179   0.990       .  S
O1160      H1183   0.990       .  S
O1161      H1175   0.990       .  S
O1161      H1182   0.990       .  S
O1162      C1166   1.289       .  A
O1163      C1166   1.313       .  A
O1164      H1174   0.990       .  S
O1165      H1178   0.990       .  S
Zr1189     O1190   2.417       .  S
Zr1189     O1191   2.406       .  S
Zr1189     O1192   2.416       .  S
Zr1189     O1195   2.493       .  S
Zr1189     O1197   2.387       .  S
Zr1189     O1198   2.380       .  S
Zr1189     O1199   2.441       .  S
Zr1189     O1200   2.288       .  S
O1190      H1246   0.986       .  S
O1190      H1254   0.984       .  S
O1191      C1211   1.279       .  A
O1192      C1213   1.266       .  A
O1193     Zr1203   2.358       .  S
O1193      C1212   1.258       .  A
O1194     Zr1202   2.453       .  S
O1194      C1213   1.279       .  A
O1195      C1212   1.288       .  A
O1196     Zr1204   2.523       .  S
O1196      C1211   1.298       .  A
O1197     Zr1202   2.446       .  S
O1197     Zr1204   2.367       .  S
O1198     Zr1203   2.392       .  S
O1198     Zr1204   2.383       .  S
O1198      H1233   0.962       .  S
O1199     Zr1202   2.468       .  S
O1199     Zr1219   2.382       .  S
O1199      H1236   0.960       .  S
O1200     Zr1203   2.322       .  S
O1200     Zr1219   2.359       .  S
Zr1201     O1226   2.454       .  S
Zr1201     O1220   2.580       .  S
Zr1201     O1228   2.373       .  S
Zr1201     O1216   2.298       .  S
Zr1201     O1207   2.447       .  S
Zr1201     O1208   2.471       .  S
Zr1201     O1209   2.383       .  S
Zr1201     O1210   2.356       .  S
Zr1202     O1221   2.439       .  S
Zr1202     O1214   2.436       .  S
Zr1202     O1215   2.546       .  S
Zr1202     O1208   2.387       .  S
Zr1202     O1209   2.410       .  S
Zr1203     O1205   2.435       .  S
Zr1203     O1227   2.447       .  S
Zr1203     O1229   2.369       .  S
Zr1203     O1207   2.337       .  S
Zr1203     O1210   2.415       .  S
Zr1204     O1230   2.434       .  S
Zr1204     O1231   2.438       .  S
Zr1204     O1206   2.441       .  S
Zr1204     O1207   2.456       .  S
Zr1204     O1208   2.431       .  S
O1205      H1242   0.990       .  S
O1206      H1237   0.990       .  S
O1206      H1251   0.990       .  S
O1208      H1234   0.965       .  S
O1209     Zr1219   2.365       .  S
O1210     Zr1219   2.413       .  S
O1210      H1235   0.962       .  S
C1211      C1798   1.512       .  S
C1212      C1949   1.465       .  S
C1213      C1655   1.476       .  S
O1214      H1250   0.990       .  S
O1215      C1217   1.299       .  A
O1216      C1217   1.244       .  A
C1217      C1496   1.457       .  S
O1218     Zr1219   2.426       .  S
O1218      H1247   0.990       .  S
Zr1219     O1222   2.439       .  S
Zr1219     O1223   2.437       .  S
Zr1219     O1224   2.407       .  S
O1220      C1225   1.316       .  A
O1221      H1238   0.990       .  S
O1221      H1253   0.990       .  S
O1222      H1239   0.990       .  S
O1223      H1243   0.990       .  S
O1223      H1252   0.989       .  S
O1224      C1225   1.276       .  A
C1225      C1543   1.531       .  S
O1226      H1245   0.990       .  S
O1226      H1249   0.989       .  S
O1227      H1241   0.989       .  S
O1227      H1248   0.989       .  S
O1228      C1232   1.267       .  A
O1229      C1232   1.260       .  A
O1230      H1240   0.990       .  S
O1231      H1244   0.990       .  S
C1232      C1599   1.434       .  S
Zr1255     O1256   2.414       .  S
Zr1255     O1257   2.446       .  S
Zr1255     O1258   2.424       .  S
Zr1255     O1261   2.540       .  S
Zr1255     O1263   2.403       .  S
Zr1255     O1264   2.363       .  S
Zr1255     O1265   2.456       .  S
Zr1255     O1266   2.323       .  S
O1256      H1312   0.985       .  S
O1256      H1320   0.984       .  S
O1257      C1277   1.286       .  A
O1258      C1279   1.264       .  A
O1259     Zr1269   2.404       .  S
O1259      C1278   1.276       .  A
O1260     Zr1268   2.458       .  S
O1260      C1279   1.275       .  A
O1261      C1278   1.308       .  A
O1262     Zr1270   2.543       .  S
O1262      C1277   1.304       .  A
O1263     Zr1268   2.446       .  S
O1263     Zr1270   2.346       .  S
O1264     Zr1269   2.370       .  S
O1264     Zr1270   2.369       .  S
O1264      H1299   0.964       .  S
O1265     Zr1268   2.464       .  S
O1265     Zr1285   2.380       .  S
O1265      H1302   0.958       .  S
O1266     Zr1269   2.352       .  S
O1266     Zr1285   2.370       .  S
Zr1267     O1292   2.455       .  S
Zr1267     O1286   2.593       .  S
Zr1267     O1294   2.376       .  S
Zr1267     O1282   2.310       .  S
Zr1267     O1273   2.443       .  S
Zr1267     O1274   2.463       .  S
Zr1267     O1275   2.365       .  S
Zr1267     O1276   2.357       .  S
Zr1268     O1287   2.439       .  S
Zr1268     O1280   2.435       .  S
Zr1268     O1281   2.565       .  S
Zr1268     O1274   2.387       .  S
Zr1268     O1275   2.393       .  S
Zr1269     O1271   2.424       .  S
Zr1269     O1293   2.444       .  S
Zr1269     O1295   2.380       .  S
Zr1269     O1273   2.354       .  S
Zr1269     O1276   2.433       .  S
Zr1270     O1296   2.435       .  S
Zr1270     O1297   2.436       .  S
Zr1270     O1272   2.438       .  S
Zr1270     O1273   2.438       .  S
Zr1270     O1274   2.448       .  S
O1271      H1308   0.990       .  S
O1272      H1303   0.990       .  S
O1272      H1317   0.990       .  S
O1274      H1300   0.965       .  S
O1275     Zr1285   2.370       .  S
O1276     Zr1285   2.398       .  S
O1276      H1301   0.961       .  S
C1277      C1770   1.533       .  S
C1278      C1893   1.508       .  S
C1279      C1630   1.471       .  S
O1280      H1316   0.990       .  S
O1281      C1283   1.304       .  A
O1282      C1283   1.250       .  A
C1283      C1542   1.477       .  S
O1284     Zr1285   2.439       .  S
O1284      H1313   0.990       .  S
Zr1285     O1288   2.436       .  S
Zr1285     O1289   2.440       .  S
Zr1285     O1290   2.424       .  S
O1286      C1291   1.317       .  A
O1287      H1304   0.990       .  S
O1287      H1319   0.990       .  S
O1288      H1305   0.990       .  S
O1289      H1309   0.990       .  S
O1289      H1318   0.990       .  S
O1290      C1291   1.277       .  A
C1291      C1481   1.542       .  S
O1292      H1311   0.991       .  S
O1292      H1315   0.988       .  S
O1293      H1307   0.990       .  S
O1293      H1314   0.990   1_545  S
O1294      C1298   1.271       .  A
O1295      C1298   1.263       .  A
O1296      H1306   0.990       .  S
O1297      H1310   0.990       .  S
C1298      C1602   1.432       .  S
Zr1321     O3354   2.412       .  S
Zr1321     O1323   2.431       .  S
Zr1321     O1324   2.429       .  S
Zr1321     O1327   2.496       .  S
Zr1321     O1329   2.375       .  S
Zr1321     O1330   2.376       .  S
Zr1321     O1331   2.425       .  S
Zr1321     O1332   2.297       .  S
O1322     Zr3353   2.412   1_554  S
O1322      H1378   0.984   1_554  S
O1322      H1386   0.988       .  S
O1323      C1343   1.283       .  A
O1324      C1345   1.279       .  A
O1325     Zr1335   2.337       .  S
O1325      C1344   1.267       .  A
O1326     Zr1334   2.419       .  S
O1326      C1345   1.279       .  A
O1327      C1344   1.303       .  A
O1328     Zr1336   2.566       .  S
O1328      C1343   1.307       .  A
O1329     Zr1334   2.425       .  S
O1329     Zr1336   2.360       .  S
O1330     Zr1335   2.394       .  S
O1330     Zr1336   2.360       .  S
O1330      H1365   0.965       .  S
O1331     Zr1334   2.442       .  S
O1331     Zr1351   2.379       .  S
O1331      H1368   0.964       .  S
O1332     Zr1335   2.348       .  S
O1332     Zr1351   2.335       .  S
Zr1333     O1358   2.449       .  S
Zr1333     O1352   2.617       .  S
Zr1333     O1360   2.383       .  S
Zr1333     O1348   2.323       .  S
Zr1333     O1339   2.457       .  S
Zr1333     O1340   2.477       .  S
Zr1333     O1341   2.376       .  S
Zr1333     O1342   2.353       .  S
Zr1334     O1353   2.441       .  S
Zr1334     O1346   2.435       .  S
Zr1334     O1347   2.505       .  S
Zr1334     O1340   2.397       .  S
Zr1334     O1341   2.404       .  S
Zr1335     O1337   2.438       .  S
Zr1335     O1359   2.440       .  S
Zr1335     O1361   2.390       .  S
Zr1335     O1339   2.342       .  S
Zr1335     O1342   2.402       .  S
Zr1336     O1362   2.435       .  S
Zr1336     O1363   2.436       .  S
Zr1336     O1338   2.438       .  S
Zr1336     O1339   2.456       .  S
Zr1336     O1340   2.454       .  S
O1337      H1374   0.989       .  S
O1338      H1369   0.990       .  S
O1338      H1383   0.990       .  S
O1340      H1366   0.966       .  S
O1341     Zr1351   2.373       .  S
O1342     Zr1351   2.410       .  S
O1342      H1367   0.956       .  S
C1343      C1728   1.566       .  S
C1344      C4040   1.446       .  S
C1345      C1672   1.467       .  S
O1346      H1382   0.990       .  S
O1347      C1349   1.286       .  A
O1348      C1349   1.243       .  A
C1349      C1476   1.452       .  S
O1350     Zr3383   2.438   1_554  S
O1350      H1379   0.990       .  S
Zr1351     O3382   2.438       .  S
Zr1351     O3386   2.438       .  S
Zr1351     O3387   2.437       .  S
Zr1351     O1356   2.387       .  S
O1352      C1357   1.325       .  A
O1353      H1370   0.990       .  S
O1353      H1385   0.990       .  S
O1354     Zr3383   2.438   1_554  S
O1354      H1371   0.990       .  S
O1355     Zr3383   2.437   1_554  S
O1355      H1375   0.990       .  S
O1355      H1384   0.989       .  S
O1356      C1357   1.270       .  A
C1357      C3579   1.539       .  S
O1358      H1377   0.991       .  S
O1358      H1381   0.988       .  S
O1359      H1373   0.990       .  S
O1359      H1380   0.990       .  S
O1360      C1364   1.265       .  A
O1361      C1364   1.264       .  A
O1362      H1372   0.990       .  S
O1363      H1376   0.990       .  S
C1364      C1585   1.460       .  S
Zr1387     O1388   2.409       .  S
Zr1387     O1389   2.415       .  S
Zr1387     O1390   2.442       .  S
Zr1387     O1393   2.477       .  S
Zr1387     O1395   2.387       .  S
Zr1387     O1396   2.384       .  S
Zr1387     O1397   2.445       .  S
Zr1387     O1398   2.389       .  S
O1388      H1444   0.990       .  S
O1388      H1452   0.990       .  S
O1389      C1409   1.281       .  A
O1390      C1411   1.274       .  A
O1391     Zr1401   2.375       .  S
O1391      C1410   1.256       .  A
O1392     Zr1400   2.399       .  S
O1392      C1411   1.264       .  A
O1393      C1410   1.272       .  A
O1394     Zr1402   2.559       .  S
O1394      C3441   1.308   1_554  A
O1395     Zr1400   2.446       .  S
O1395     Zr3434   2.334       .  S
O1396     Zr1401   2.415       .  S
O1396     Zr3434   2.370       .  S
O1396      H1431   0.965       .  S
O1397     Zr1400   2.452       .  S
O1397     Zr1417   2.391       .  S
O1397      H1434   0.958       .  S
O1398     Zr1401   2.367       .  S
O1398     Zr1417   2.349       .  S
Zr1399     O3456   2.434       .  S
Zr1399     O1418   2.539       .  S
Zr1399     O1426   2.426       .  S
Zr1399     O3446   2.326       .  S
Zr1399     O1405   2.389       .  S
Zr1399     O1407   2.359       .  S
Zr1399     O1408   2.332       .  S
Zr1399     O3438   2.452       .  S
Zr1400     O1419   2.438       .  S
Zr1400     O3444   2.434       .  S
Zr1400     O3445   2.481       .  S
Zr1400     O1407   2.382       .  S
Zr1400     O3438   2.381       .  S
Zr1401     O1403   2.428       .  S
Zr1401     O1425   2.440       .  S
Zr1401     O1427   2.381       .  S
Zr1401     O1405   2.340       .  S
Zr1401     O1408   2.379       .  S
Zr1402     O1428   2.435       .  S
Zr1402     O1429   2.435       .  S
Zr1402     O1404   2.438       .  S
Zr1402     O1406   2.466       .  S
Zr1402     O3427   2.334   1_554  S
Zr1402     O3428   2.370   1_554  S
Zr1402     O3437   2.425   1_554  S
O1403      H1440   0.990       .  S
O1404      H1435   0.990       .  S
O1404      H1449   0.990       .  S
O1405     Zr3434   2.425       .  S
O1406     Zr3431   2.452   1_554  S
O1406     Zr3432   2.381   1_554  S
O1406      H1432   0.965       .  S
O1407     Zr1417   2.377       .  S
O1408     Zr1417   2.417       .  S
O1408      H1433   0.966       .  S
C1409      O3426   1.308       .  A
C1409      C1700   1.533       .  S
C1410      C1865   1.453       .  S
C1411      C1616   1.446       .  S
O1412     Zr3432   2.434   1_554  S
O1412      H1448   0.990       .  S
O1413     Zr3432   2.481   1_554  S
O1413      C1415   1.290       .  A
O1414     Zr3431   2.326   1_554  S
O1414      C1415   1.265       .  A
C1415      C1562   1.449       .  S
O1416     Zr1417   2.440       .  S
O1416      H1445   0.990       .  S
Zr1417     O1420   2.436       .  S
Zr1417     O1421   2.442       .  S
Zr1417     O1422   2.401       .  S
O1418      C1423   1.306       .  A
O1419      H1436   0.990       .  S
O1419      H1451   0.990       .  S
O1420      H1437   0.990       .  S
O1421      H1441   0.990       .  S
O1421      H1450   0.989       .  S
O1422      C1423   1.274       .  A
C1423      C1477   1.508       .  S
O1424     Zr3431   2.434       .  S
O1424      H1443   0.988       .  S
O1424      H1447   0.990       .  S
O1425      H1439   0.987       .  S
O1425      H1446   0.986       .  S
O1426      C1430   1.279       .  A
O1427      C1430   1.272       .  A
O1428      H1438   0.990       .  S
O1429      H1442   0.990       .  S
C1430      C1588   1.476       .  S
Zr1453     O1454   2.445       .  S
Zr1453     O1455   2.385       .  S
Zr1453     O1456   2.421       .  S
Zr1453     O1459   2.475       .  S
Zr1453     O1461   2.392       .  S
Zr1453     O1462   2.359       .  S
Zr1453     O1463   2.421       .  S
Zr1453     O1464   2.390       .  S
O1454      H1510   0.991       .  S
O1454      H1518   0.990       .  S
O1455      C1475   1.274       .  A
O1456      C1477   1.279       .  A
O1457     Zr1467   2.381       .  S
O1457      C1476   1.264       .  A
O1458     Zr1466   2.545       .  S
O1458      C1477   1.310       .  A
O1459      C1476   1.296       .  A
O1460     Zr1468   2.475       .  S
O1460      C1475   1.288       .  A
O1461     Zr1466   2.412       .  S
O1461     Zr1468   2.373       .  S
O1462     Zr1467   2.408       .  S
O1462     Zr1468   2.367       .  S
O1462      H1497   0.966       .  S
O1463     Zr1466   2.425       .  S
O1463     Zr1483   2.380       .  S
O1463      H1500   0.964       .  S
O1464     Zr1467   2.403       .  S
O1464     Zr1483   2.411       .  S
Zr1465     O1490   2.437       .  S
Zr1465     O1484   2.379       .  S
Zr1465     O1492   2.492       .  S
Zr1465     O1480   2.462       .  S
Zr1465     O1471   2.398       .  S
Zr1465     O1472   2.419       .  S
Zr1465     O1473   2.387       .  S
Zr1465     O1474   2.363       .  S
Zr1466     O1485   2.435       .  S
Zr1466     O1478   2.434       .  S
Zr1466     O1479   2.574       .  S
Zr1466     O1472   2.412       .  S
Zr1466     O1473   2.395       .  S
Zr1467     O1469   2.438       .  S
Zr1467     O1491   2.436       .  S
Zr1467     O1493   2.388       .  S
Zr1467     O1471   2.401       .  S
Zr1467     O1474   2.400       .  S
Zr1468     O1494   2.435       .  S
Zr1468     O1495   2.435       .  S
Zr1468     O1470   2.436       .  S
Zr1468     O1471   2.427       .  S
Zr1468     O1472   2.400       .  S
O1469      H1506   0.990       .  S
O1470      H1501   0.990       .  S
O1470      H1515   0.990       .  S
O1472      H1498   0.965       .  S
O1473     Zr1483   2.386       .  S
O1474     Zr1483   2.367       .  S
O1474      H1499   0.965       .  S
C1475      C1555   1.482       .  S
O1478      H1514   0.990       .  S
O1479      C1481   1.316       .  A
O1480      C1481   1.285       .  A
O1482     Zr1483   2.439       .  S
O1482      H1511   0.990       .  S
Zr1483     O1486   2.437       .  S
Zr1483     O1487   2.441       .  S
Zr1483     O1488   2.437       .  S
O1484      C1489   1.275       .  A
O1485      H1502   0.990       .  S
O1485      H1517   0.990       .  S
O1486      H1503   0.990       .  S
O1487      H1507   0.990       .  S
O1487      H1516   0.990       .  S
O1488      C1489   1.281       .  A
C1489      C1541   1.459       .  S
O1490      H1509   0.991       .  S
O1490      H1513   0.990       .  S
O1491      H1505   0.990       .  S
O1491      H1512   0.990       .  S
O1492      C1496   1.302       .  A
O1493      C1496   1.267       .  A
O1494      H1504   0.990       .  S
O1495      H1508   0.990       .  S
Zr1519     O1520   2.438       .  S
Zr1519     O1521   2.386       .  S
Zr1519     O1522   2.453       .  S
Zr1519     O1525   2.490       .  S
Zr1519     O1527   2.392       .  S
Zr1519     O1528   2.368       .  S
Zr1519     O1529   2.422       .  S
Zr1519     O1530   2.391       .  S
O1520      H1576   0.990       .  S
O1520      H1584   0.990       .  S
O1521      C1541   1.277       .  A
O1522      C1543   1.284       .  A
O1523     Zr1533   2.409       .  S
O1523      C1542   1.272       .  A
O1524     Zr1532   2.558       .  S
O1524      C1543   1.313       .  A
O1525      C1542   1.301       .  A
O1526     Zr1534   2.429       .  S
O1526      C1541   1.279       .  A
O1527     Zr1532   2.409       .  S
O1527     Zr1534   2.376       .  S
O1528     Zr1533   2.400       .  S
O1528     Zr1534   2.387       .  S
O1528      H1563   0.966       .  S
O1529     Zr1532   2.424       .  S
O1529     Zr1549   2.403       .  S
O1529      H1566   0.966       .  S
O1530     Zr1533   2.404       .  S
O1530     Zr1549   2.415       .  S
Zr1531     O1556   2.420       .  S
Zr1531     O1558   2.416       .  S
Zr1531     O1546   2.422       .  S
Zr1531     O3582   2.409   1_554  S
Zr1531     O1537   2.385       .  S
Zr1531     O1538   2.403       .  S
Zr1531     O1539   2.372       .  S
Zr1531     O1540   2.366       .  S
Zr1532     O1551   2.434       .  S
Zr1532     O1544   2.435       .  S
Zr1532     O1545   2.606       .  S
Zr1532     O1538   2.391       .  S
Zr1532     O1539   2.382       .  S
Zr1533     O1535   2.435       .  S
Zr1533     O1557   2.438       .  S
Zr1533     O1559   2.405       .  S
Zr1533     O1537   2.386       .  S
Zr1533     O1540   2.401       .  S
Zr1534     O1560   2.436       .  S
Zr1534     O1561   2.439       .  S
Zr1534     O1536   2.438       .  S
Zr1534     O1537   2.399       .  S
Zr1534     O1538   2.400       .  S
O1535      H1572   0.990       .  S
O1536      H1567   0.990       .  S
O1536      H1581   0.990       .  S
O1538      H1564   0.966       .  S
O1539     Zr1549   2.374       .  S
O1540     Zr1549   2.386       .  S
O1540      H1565   0.966       .  S
O1544      H1580   0.990       .  S
O1545      C1547   1.325       .  A
O1546      C1547   1.280       .  A
C1547      C3389   1.539   1_554  S
O1548     Zr1549   2.440       .  S
O1548      H1577   0.990       .  S
Zr1549     O1552   2.437       .  S
Zr1549     O3585   2.441       .  S
Zr1549     O3586   2.463   1_554  S
O1550     Zr3563   2.409       .  S
O1550      C1555   1.284       .  A
O1551      H1568   0.990       .  S
O1551      H1583   0.990       .  S
O1552      H3601   0.990       .  S
O1553     Zr3581   2.441       .  S
O1553      H1573   0.990       .  S
O1553      H1582   0.990       .  S
O1554     Zr3581   2.463       .  S
O1554      C1555   1.286       .  A
O1556      H1575   0.990       .  S
O1556      H1579   0.988       .  S
O1557      H1571   0.990       .  S
O1557      H1578   0.990       .  S
O1558      C1562   1.287       .  A
O1559      C1562   1.274       .  A
O1560      H1570   0.990       .  S
O1561      H1574   0.990       .  S
H1569      O3584   0.990       .  S
C1585      C1586   1.422       .  A
C1585      C1590   1.419       .  A
C1586      C1587   1.397       .  A
C1586      C1591   1.444       .  S
C1587      C1588   1.394       .  A
C1587      C3626   1.450       .  S
C1588      C1589   1.400       .  A
C1589      C1590   1.403       .  A
C1589      C1592   1.445       .  S
C1590      C1593   1.450       .  S
C1591      N1598   1.155       .  T
C1592      N1597   1.157       .  T
C1593      N1595   1.157       .  T
C1594      C3619   1.450   1_554  S
C1594      N1596   1.157       .  T
C1599      C1600   1.414       .  A
C1599      C1604   1.397       .  A
C1600      C1601   1.392       .  A
C1600      C1605   1.450       .  S
C1601      C1602   1.397       .  A
C1601      C1608   1.454       .  S
C1602      C1603   1.413       .  A
C1603      C1604   1.390       .  A
C1603      C1606   1.449       .  S
C1604      C1607   1.455       .  S
C1605      N1612   1.157       .  T
C1606      N1611   1.156       .  T
C1607      N1609   1.157       .  T
C1608      N1610   1.157       .  T
C1613      C1614   1.413       .  A
C1613      C1618   1.409       .  A
C1614      C1615   1.395       .  A
C1614      C1619   1.452       .  S
C1615      C1616   1.399       .  A
C1615      C1622   1.449       .  S
C1616      C1617   1.396       .  A
C1617      C1618   1.396       .  A
C1617      C1620   1.446       .  S
C1618      C1621   1.448       .  S
C1619      N1626   1.157       .  T
C1620      N3657   1.157       .  T
C1621      N1623   1.156   1_455  T
C1622      N1624   1.157       .  T
N1625      C3652   1.157   1_554  T
C1627      C1628   1.421       .  A
C1627      C1632   1.417       .  A
C1628      C1629   1.402       .  A
C1628      C1633   1.455       .  S
C1629      C1630   1.400       .  A
C1629      C1636   1.449       .  S
C1630      C1631   1.410       .  A
C1631      C1632   1.411       .  A
C1631      C1634   1.447       .  S
C1632      C1635   1.450   1_455  S
C1633      N1640   1.157       .  T
C1634      N1639   1.156       .  T
C1635      N1637   1.158       .  T
C1636      N1638   1.157       .  T
C1641      C1642   1.392       .  A
C1641      C1646   1.396       .  A
C1642      C1643   1.394       .  A
C1642      C1647   1.452       .  S
C1643      C1644   1.419       .  A
C1643      C1650   1.446       .  S
C1644      C1645   1.429       .  A
C1645      C1646   1.407       .  A
C1645      C1648   1.447       .  S
C1646      C1649   1.449   1_655  S
C1647      N1654   1.157       .  T
C1648      N1653   1.157   1_655  T
C1649      N1651   1.157       .  T
C1650      N1652   1.155       .  T
C1655      C1656   1.401       .  A
C1655      C1660   1.413       .  A
C1656      C1657   1.402       .  A
C1656      C1661   1.452       .  S
C1657      C1658   1.423       .  A
C1657      C1664   1.453       .  S
C1658      C1659   1.421       .  A
C1659      C1660   1.412       .  A
C1659      C1662   1.449       .  S
C1660      C1663   1.452       .  S
C1661      N1668   1.157       .  T
C1662      N1667   1.157       .  T
C1663      N1665   1.157       .  T
C1664      N1666   1.158       .  T
C1669      C1670   1.428   1_554  A
C1669      C1674   1.420       .  A
C1670      C3703   1.408       .  A
C1670      C1675   1.448       .  S
C1671      C1672   1.401       .  A
C1671      C3702   1.408       .  A
C1671      C1678   1.450       .  S
C1672      C1673   1.399       .  A
C1673      C3706   1.403       .  A
C1673      C1676   1.450       .  S
C1674      C3705   1.403   1_554  A
C1674      C1677   1.450       .  S
C1675      N1682   1.157       .  T
C1676      N1681   1.157       .  T
C1677      N1679   1.157       .  T
C1678      N1680   1.157       .  T
C1683      C1684   1.385       .  A
C1683      C1688   1.398       .  A
C1684      C1685   1.393       .  A
C1684      C1689   1.445   1_554  S
C1685      C1686   1.425       .  A
C1685      C1692   1.436       .  S
C1686      C1687   1.424       .  A
C1687      C1688   1.405       .  A
C1687      C1690   1.449       .  S
C1688      C1691   1.445       .  S
C1689      N1696   1.157       .  T
C1690      N1695   1.157       .  T
C1691      N1693   1.157       .  T
C1692      N1694   1.152       .  T
C1697      C1698   1.420       .  A
C1697      C3734   1.418       .  A
C1698      C1699   1.428       .  A
C1698      C1703   1.440       .  S
C1699      C1700   1.411       .  A
C1699      C1706   1.447       .  S
C1700      C3733   1.419       .  A
C1701      C1702   1.437       .  A
C1701      C3732   1.419       .  A
C1701      C1704   1.442       .  S
C1702      C3729   1.418       .  A
C1702      C1705   1.446   1_455  S
C1703      N1710   1.154       .  T
C1704      N1709   1.156       .  T
C1705      N1707   1.157       .  T
C1706      N1708   1.157       .  T
C1711      C1712   1.380       .  A
C1711      C1716   1.419       .  A
C1712      C1713   1.409       .  A
C1712      C1717   1.452   1_655  S
C1713      C1714   1.445       .  A
C1713      C1720   1.443       .  S
C1714      C1715   1.417       .  A
C1715      C1716   1.425       .  A
C1715      C1718   1.447       .  S
C1716      C1719   1.441       .  S
C1717      N1724   1.157       .  T
C1718      N1723   1.157       .  T
C1719      N1721   1.157       .  T
C1720      N1722   1.156       .  T
C1725      C1726   1.422       .  A
C1725      C1730   1.432       .  A
C1726      C1727   1.407       .  A
C1726      C1731   1.444       .  S
C1727      C1728   1.423       .  A
C1727      C1734   1.449       .  S
C1728      C1729   1.435       .  A
C1729      C1730   1.459       .  A
C1729      C1732   1.445       .  S
C1730      C1733   1.446       .  S
C1731      N1738   1.155       .  T
C1732      N1737   1.157       .  T
C1733      N1735   1.157       .  T
C1734      N1736   1.157       .  T
C1739      C2584   1.458       .  S
C1739      C1740   1.390       .  A
C1739      C1744   1.420       .  A
C1740      C1741   1.392       .  A
C1740      C3777   1.457       .  S
C1741      C1742   1.439       .  A
C1741      C1748   1.451       .  S
C1742      C1743   1.404       .  A
C1743      C1744   1.408       .  A
C1743      C1746   1.450       .  S
C1744      C1747   1.448       .  S
C1745      C3772   1.457       .  S
C1745      N1752   1.155       .  T
C1746      N1751   1.157       .  T
C1747      N1749   1.156       .  T
C1748      N1750   1.156       .  T
C1753      C1754   1.408       .  A
C1753      C1758   1.405       .  A
C1754      C1755   1.391       .  A
C1754      C1759   1.452       .  S
C1755      C1756   1.400       .  A
C1755      C3794   1.452       .  S
C1756      C1757   1.407       .  A
C1757      C1758   1.397       .  A
C1757      C1760   1.450       .  S
C1758      C1761   1.452       .  S
C1759      N3798   1.157       .  T
C1760      N1765   1.157       .  T
C1761      N1763   1.157       .  T
C1762      C3787   1.452       .  S
C1762      N1764   1.157   1_556  T
N1766      C3791   1.157   1_554  T
C1767      C1768   1.418   1_565  A
C1767      C1772   1.421       .  A
C1768      C1769   1.437       .  A
C1768      C1773   1.447   1_455  S
C1769      C1770   1.420       .  A
C1769      C1776   1.444       .  S
C1770      C1771   1.415   1_545  A
C1771      C1772   1.429       .  A
C1771      C1774   1.450       .  S
C1772      C1775   1.444       .  S
C1773      N1780   1.157       .  T
C1774      N1779   1.157       .  T
C1775      N1777   1.156       .  T
C1776      N1778   1.156       .  T
C1781      C1782   1.412       .  A
C1781      C1786   1.413       .  A
C1782      C1783   1.404   1_565  A
C1782      C1787   1.452   1_565  S
C1783      C1784   1.401   1_545  A
C1783      C1790   1.444       .  S
C1784      C1785   1.404       .  A
C1785      C1786   1.409       .  A
C1785      C1788   1.447       .  S
C1786      C1789   1.443       .  S
C1787      N1794   1.158       .  T
C1788      N1793   1.157       .  T
C1789      N1791   1.155       .  T
C1790      N1792   1.156       .  T
C1795      C1796   1.425       .  A
C1795      C1800   1.424       .  A
C1796      C1797   1.438   1_565  A
C1796      C1801   1.446       .  S
C1797      C1798   1.418       .  A
C1797      C1804   1.447       .  S
C1798      C1799   1.408   1_545  A
C1799      C1800   1.413       .  A
C1799      C1802   1.456       .  S
C1800      C1803   1.438       .  S
C1801      N1808   1.157   1_565  T
C1802      N1807   1.157       .  T
C1803      N1805   1.151       .  T
C1804      N1806   1.157       .  T
C1809      C1810   1.388       .  A
C1809      C1814   1.408       .  A
C1810      C1811   1.407       .  A
C1810      C1815   1.449       .  S
C1811      C1812   1.435       .  A
C1811      C1818   1.450       .  S
C1812      C1813   1.427       .  A
C1813      C1814   1.419       .  A
C1813      C1816   1.448       .  S
C1814      C1817   1.443       .  S
C1815      N1822   1.157       .  T
C1816      N1821   1.157       .  T
C1817      N1819   1.157   1_554  T
C1818      N1820   1.157   1_565  T
C1823      C1824   1.400       .  A
C1823      C1828   1.396       .  A
C1824      C1825   1.404       .  A
C1824      C1829   1.448       .  S
C1825      C1826   1.420       .  A
C1825      C1832   1.451       .  S
C1826      C1827   1.423       .  A
C1827      C1828   1.404       .  A
C1827      C1830   1.442       .  S
C1828      C1831   1.448       .  S
C1829      N1836   1.157   1_565  T
C1830      N1835   1.156       .  T
C1831      N1833   1.157       .  T
C1832      N1834   1.157       .  T
C1837      C1838   1.420       .  A
C1837      C1842   1.421       .  A
C1838      C1839   1.442       .  A
C1838      C1843   1.448       .  S
C1839      C1840   1.426       .  A
C1839      C1846   1.446   1_455  S
C1840      C1841   1.416       .  A
C1841      C1842   1.432       .  A
C1841      C1844   1.446       .  S
C1842      C1845   1.446       .  S
C1843      N1850   1.157       .  T
C1844      N1849   1.157       .  T
C1845      N1847   1.156       .  T
C1846      N1848   1.157       .  T
C1851      C1852   1.395       .  A
C1851      C1856   1.402       .  A
C1852      C1853   1.400       .  A
C1852      C1857   1.447       .  S
C1853      C1854   1.417       .  A
C1853      C1860   1.452       .  S
C1854      C1855   1.421       .  A
C1855      C1856   1.413       .  A
C1855      C1858   1.447       .  S
C1856      C1859   1.446       .  S
C1857      N1864   1.157       .  T
C1858      N1863   1.157       .  T
C1859      N1861   1.157       .  T
C1860      N1862   1.157       .  T
C1865      C1866   1.422       .  A
C1865      C1870   1.408       .  A
C1866      C1867   1.408       .  A
C1866      C1871   1.452       .  S
C1867      C1868   1.399       .  A
C1867      C1874   1.446       .  S
C1868      C1869   1.403       .  A
C1869      C1870   1.408       .  A
C1869      C1872   1.448       .  S
C1870      C1873   1.445       .  S
C1871      N1878   1.157       .  T
C1872      N1877   1.157       .  T
C1873      N1875   1.157       .  T
C1874      N1876   1.157       .  T
C1879      C1880   1.421       .  A
C1879      C1884   1.410       .  A
C1880      C1881   1.443   1_565  A
C1880      C1885   1.446       .  S
C1881      C1882   1.425       .  A
C1881      C1888   1.445       .  S
C1882      C1883   1.430   1_545  A
C1883      C1884   1.424       .  A
C1883      C1886   1.447   1_455  S
C1884      C1887   1.448       .  S
C1885      N1892   1.157       .  T
C1886      N1891   1.155       .  T
C1887      N1889   1.156       .  T
C1888      N1890   1.157       .  T
C1893      C1894   1.422       .  A
C1893      C1898   1.439       .  A
C1894      C1895   1.420       .  A
C1894      C1899   1.447       .  S
C1895      C1896   1.409       .  A
C1895      C1902   1.441       .  S
C1896      C1897   1.387       .  A
C1897      C1898   1.410       .  A
C1897      C1900   1.449       .  S
C1898      C1901   1.445       .  S
C1899      N1906   1.156       .  T
C1900      N1905   1.157       .  T
C1901      N1903   1.156   1_545  T
C1902      N1904   1.155       .  T
C1907      C1908   1.414       .  A
C1907      C1912   1.391       .  A
C1908      C1909   1.428       .  A
C1908      C1913   1.445       .  S
C1909      C1910   1.432       .  A
C1909      C1916   1.442       .  S
C1910      C1911   1.389       .  A
C1911      C1912   1.370       .  A
C1911      C1914   1.444       .  S
C1912      C1915   1.448       .  S
C1913      N1920   1.157       .  T
C1914      N1919   1.158       .  T
C1915      N1917   1.157       .  T
C1916      N1918   1.157       .  T
C1921      C1922   1.420       .  A
C1921      C1926   1.417       .  A
C1922      C1923   1.394       .  A
C1922      C1927   1.451       .  S
C1923      C1924   1.395       .  A
C1923      C1930   1.447       .  S
C1924      C1925   1.399       .  A
C1925      C1926   1.396       .  A
C1925      C1928   1.448       .  S
C1926      C1929   1.451       .  S
C1927      N1934   1.157       .  T
C1928      N1933   1.157       .  T
C1929      N1931   1.157       .  T
C1930      N1932   1.157       .  T
C1935      C1936   1.421       .  A
C1935      C1940   1.426       .  A
C1936      C1937   1.403       .  A
C1936      C1941   1.454       .  S
C1937      C1938   1.398       .  A
C1937      C1944   1.450       .  S
C1938      C1939   1.406       .  A
C1939      C1940   1.415       .  A
C1939      C1942   1.447       .  S
C1940      C1943   1.450       .  S
C1941      N1948   1.158       .  T
C1942      N1947   1.157       .  T
C1943      N1945   1.157       .  T
C1944      N1946   1.157       .  T
C1949      C1950   1.412       .  A
C1949      C1954   1.416       .  A
C1950      C1951   1.398       .  A
C1950      C1955   1.445   1_545  S
C1951      C1952   1.396       .  A
C1951      C1958   1.453   1_545  S
C1952      C1953   1.408       .  A
C1953      C1954   1.416       .  A
C1953      C1956   1.446       .  S
C1954      C1957   1.445       .  S
C1955      N1962   1.156       .  T
C1956      N1961   1.157       .  T
C1957      N1959   1.157       .  T
C1958      N1960   1.157       .  T
C1963      C1964   1.427       .  A
C1963      C1968   1.426       .  A
C1964      C1965   1.414   1_565  A
C1964      C1969   1.443   1_565  S
C1965      C1966   1.405       .  A
C1965      C1972   1.445       .  S
C1966      C1967   1.421   1_545  A
C1967      C1968   1.444       .  A
C1967      C4002   1.445   1_554  S
C1968      C4003   1.446   1_554  S
C1969      N1976   1.153       .  T
C1970      C3999   1.445       .  S
C1970      N1975   1.157       .  T
C1971      C4000   1.446       .  S
C1971      N1973   1.157       .  T
C1972      N1974   1.153       .  T
C1977      C1978   1.421       .  A
C1977      C1982   1.424       .  A
C1978      C1979   1.442       .  A
C1978      C1983   1.447       .  S
C1979      C1980   1.426       .  A
C1979      C1986   1.448       .  S
C1980      C1981   1.420       .  A
C1981      C1982   1.438       .  A
C1981      C1984   1.447       .  S
C1982      C1985   1.448       .  S
C1983      N1990   1.157       .  T
C1984      N1989   1.157       .  T
C1985      N1987   1.157       .  T
C1986      N1988   1.157       .  T
C1991      C1996   1.423       .  A
C1991      C4024   1.429   1_554  A
C1992      C1993   1.410       .  A
C1992      C4023   1.429       .  A
C1992      C1997   1.449       .  S
C1993      C1994   1.403       .  A
C1993      C2000   1.451       .  S
C1994      C1995   1.399       .  A
C1995      C4028   1.402       .  A
C1995      C4030   1.449       .  S
C1996      C4027   1.402   1_554  A
C1996      C1999   1.453       .  S
C1997      N2004   1.157       .  T
C1998      C4027   1.449       .  S
C1998      N2003   1.157   1_556  T
C1999      N2001   1.158       .  T
C2000      N2002   1.157       .  T
C2005      C2006   1.416       .  A
C2005      C2010   1.411       .  A
C2006      C2007   1.366       .  A
C2006      C2011   1.432       .  S
C2007      C2008   1.387       .  A
C2007      C4046   1.457       .  S
C2008      C3376   1.446       .  S
C2008      C2009   1.421       .  A
C2009      C2010   1.417       .  A
C2009      C2012   1.448       .  S
C2010      C2013   1.448       .  S
C2011      N2018   1.157       .  T
C2012      N2017   1.157       .  T
C2013      N2015   1.157       .  T
C2014      C4039   1.457       .  S
C2014      N2016   1.156       .  T
C2019      C2020   1.422       .  A
C2019      C2024   1.422       .  A
C2020      C2021   1.399       .  A
C2020      C2025   1.447       .  S
C2021      C2022   1.393       .  A
C2021      C2028   1.445       .  S
C2022      C2023   1.396       .  A
C2023      C2024   1.396       .  A
C2023      C2026   1.447       .  S
C2024      C2027   1.451       .  S
C2025      N2032   1.156       .  T
C2026      N2031   1.157       .  T
C2027      N2029   1.158       .  T
C2028      N2030   1.157       .  T
Zr2033     O2034   2.435       .  S
Zr2033     O2035   2.477       .  S
Zr2033     O2036   2.457       .  S
Zr2033     O2039   2.385       .  S
Zr2033     O2041   2.376       .  S
Zr2033     O2042   2.413       .  S
Zr2033     O2043   2.415       .  S
Zr2033     O2044   2.436       .  S
O2034      H2090   0.990       .  S
O2035      C2055   1.288       .  A
O2036      C2057   1.272       .  A
O2037     Zr2047   2.480       .  S
O2037      C2056   1.288       .  A
O2038     Zr2046   2.371       .  S
O2038      C2057   1.260       .  A
O2039      C2056   1.270       .  A
O2040     Zr2048   2.518       .  S
O2040      C2055   1.295       .  A
O2041     Zr2046   2.411       .  S
O2041     Zr2048   2.384       .  S
O2042     Zr2047   2.447       .  S
O2042     Zr2048   2.318       .  S
O2042      H2077   0.965       .  S
O2043     Zr2046   2.397       .  S
O2043     Zr2063   2.383       .  S
O2043      H2080   0.958       .  S
O2044     Zr2047   2.426       .  S
O2044     Zr2063   2.390       .  S
Zr2045     O2070   2.422       .  S
Zr2045     O2064   2.581       .  S
Zr2045     O2072   2.354       .  S
Zr2045     O2060   2.479       .  S
Zr2045     O2051   2.464       .  S
Zr2045     O2052   2.409       .  S
Zr2045     O2053   2.336       .  S
Zr2045     O2054   2.377       .  S
Zr2046     O2065   2.444       .  S
Zr2046     O2058   2.431       .  S
Zr2046     O2059   2.372       .  S
Zr2046     O2052   2.374       .  S
Zr2046     O2053   2.397       .  S
Zr2047     O2049   2.434       .  S
Zr2047     O2071   2.435       .  S
Zr2047     O2073   2.548       .  S
Zr2047     O2051   2.380       .  S
Zr2047     O2054   2.407       .  S
Zr2048     O2074   2.435       .  S
Zr2048     O2075   2.435       .  S
Zr2048     O2050   2.438       .  S
Zr2048     O2051   2.452       .  S
Zr2048     O2052   2.389       .  S
O2049      H2086   0.990       .  S
O2050      H2081   0.990       .  S
O2050      H2095   0.990       .  S
O2052      H2078   0.960       .  S
O2053     Zr2063   2.412       .  S
O2054     Zr2063   2.376       .  S
O2054      H2079   0.966       .  S
C2055      C4009   1.554       .  S
C2056      C4037   1.487       .  S
C2057      C4023   1.496       .  S
O2058      H2094   0.991       .  S
O2059      C2061   1.270       .  A
O2060      C2061   1.294       .  A
C2061      C4054   1.472       .  S
O2062      H2091   0.990       .  S
Zr2063     O2067   2.438       .  S
Zr2063     O2068   2.417       .  S
O2064      C2069   1.314       .  A
O2065      H2082   0.989       .  S
O2065      H2097   0.988       .  S
O2066      H2083   0.990       .  S
O2067      H2096   0.990       .  S
O2068      C2069   1.275       .  A
O2070      H2089   0.989       .  S
O2070      H2093   0.985       .  S
O2071      H2085   0.990       .  S
O2071      H2092   0.990       .  S
O2072      C2076   1.262       .  A
O2073      C2076   1.302       .  A
O2074      H2084   0.990       .  S
O2075      H2088   0.990       .  S
C2076      C2391   1.491       .  S
Zr2099     O2100   2.433       .  S
Zr2099     O2101   2.415       .  S
Zr2099     O2102   2.458       .  S
Zr2099     O2105   2.403       .  S
Zr2099     O2107   2.379       .  S
Zr2099     O2108   2.398       .  S
Zr2099     O2109   2.408       .  S
Zr2099     O2110   2.424       .  S
O2100      H2156   0.990       .  S
O2100      H2164   0.990       .  S
O2101      C2121   1.279       .  A
O2102      C2123   1.271       .  A
O2103     Zr2113   2.417       .  S
O2103      C2122   1.282       .  A
O2104     Zr2112   2.369       .  S
O2104      C2123   1.260       .  A
O2105      C2122   1.284       .  A
O2106     Zr2114   2.537       .  S
O2106      C2121   1.300       .  A
O2107     Zr2112   2.398       .  S
O2107     Zr2114   2.354       .  S
O2108     Zr2113   2.420       .  S
O2108     Zr2114   2.345       .  S
O2108      H2143   0.966       .  S
O2109     Zr2112   2.407       .  S
O2109     Zr2129   2.383       .  S
O2109      H2146   0.959       .  S
O2110     Zr2113   2.419       .  S
O2110     Zr2129   2.390       .  S
Zr2111     O2130   2.571       .  S
Zr2111     O2138   2.343       .  S
Zr2111     O2126   2.408       .  S
Zr2111     O2117   2.445       .  S
Zr2111     O2118   2.431       .  S
Zr2111     O2119   2.346       .  S
Zr2111     O2120   2.383       .  S
Zr2112     O2131   2.441       .  S
Zr2112     O2124   2.427       .  S
Zr2112     O2125   2.355       .  S
Zr2112     O2118   2.390       .  S
Zr2112     O2119   2.379       .  S
Zr2113     O2115   2.434       .  S
Zr2113     O2137   2.435       .  S
Zr2113     O2139   2.480       .  S
Zr2113     O2117   2.377       .  S
Zr2113     O2120   2.408       .  S
Zr2114     O2117   2.438       .  S
Zr2114     O2118   2.426       .  S
O2115      H2152   0.990       .  S
O2116      H2147   0.990   1_554  S
O2118      H2144   0.968       .  S
O2119     Zr2129   2.387       .  S
O2120     Zr2129   2.368       .  S
O2120      H2145   0.965       .  S
C2121      C3995   1.547       .  S
C2122      C3984   1.456   1_565  S
C2123      C3967   1.490       .  S
O2124      H2160   0.990       .  S
O2125      C2127   1.254       .  A
O2126      C2127   1.273       .  A
C2127      C4051   1.449       .  S
O2128     Zr2129   2.438       .  S
O2128      H2157   0.990       .  S
Zr2129     O2132   2.437       .  S
Zr2129     O2133   2.438       .  S
Zr2129     O2134   2.432       .  S
O2130      C2135   1.316       .  A
O2131      H2148   0.987       .  S
O2131      H2163   0.988       .  S
O2132      H2149   0.990       .  S
O2133      H2153   0.990       .  S
O2133      H2162   0.990       .  S
O2134      C2135   1.281       .  A
C2135      C2406   1.534       .  S
O2136      H2155   0.989       .  S
O2136      H2159   0.990       .  S
O2137      H2151   0.990       .  S
O2137      H2158   0.990       .  S
O2138      C2142   1.252       .  A
O2139      C2142   1.283       .  A
O2140      H2150   0.990       .  S
O2141      H2154   0.990       .  S
Zr2165     O2166   2.435       .  S
Zr2165     O2167   2.462       .  S
Zr2165     O2168   2.435       .  S
Zr2165     O2171   2.369       .  S
Zr2165     O2173   2.379       .  S
Zr2165     O2174   2.397       .  S
Zr2165     O2175   2.422       .  S
Zr2165     O2176   2.428       .  S
O2166      H2222   0.990       .  S
O2166      H2230   0.990       .  S
O2167      C2187   1.287       .  A
O2168      C2189   1.270       .  A
O2169     Zr2179   2.466       .  S
O2169      C2188   1.288       .  A
O2170     Zr2178   2.357       .  S
O2170      C2189   1.260       .  A
O2171      C2188   1.276       .  A
O2172     Zr2180   2.513       .  S
O2172      C2187   1.297       .  A
O2173     Zr2178   2.390       .  S
O2173     Zr2180   2.360       .  S
O2174     Zr2179   2.433       .  S
O2174     Zr2180   2.346       .  S
O2174      H2209   0.966       .  S
O2175     Zr2178   2.398       .  S
O2175     Zr2195   2.375       .  S
O2175      H2212   0.959       .  S
O2176     Zr2179   2.414       .  S
O2176     Zr2195   2.397       .  S
Zr2177     O2202   2.434       .  S
Zr2177     O2196   2.559       .  S
Zr2177     O2204   2.338       .  S
Zr2177     O2192   2.428       .  S
Zr2177     O2183   2.441       .  S
Zr2177     O2184   2.415       .  S
Zr2177     O2185   2.338       .  S
Zr2177     O2186   2.380       .  S
Zr2178     O2197   2.435       .  S
Zr2178     O2190   2.430       .  S
Zr2178     O2191   2.334       .  S
Zr2178     O2184   2.387       .  S
Zr2178     O2185   2.385       .  S
Zr2179     O2181   2.435       .  S
Zr2179     O2203   2.434       .  S
Zr2179     O2205   2.518       .  S
Zr2179     O2183   2.376       .  S
Zr2179     O2186   2.412       .  S
Zr2180     O2206   2.437       .  S
Zr2180     O2207   2.436       .  S
Zr2180     O2182   2.436       .  S
Zr2180     O2183   2.427       .  S
Zr2180     O2184   2.417       .  S
O2181      H2218   0.990       .  S
O2182      H2213   0.990       .  S
O2182      H2227   0.990       .  S
O2184      H2210   0.967       .  S
O2185     Zr2195   2.390       .  S
O2186     Zr2195   2.365       .  S
O2186      H2211   0.966       .  S
C2187      C3911   1.535       .  S
C2188      C3928   1.476   1_565  S
C2189      C3942   1.454       .  S
O2190      H2226   0.991       .  S
O2191      C2193   1.255       .  A
O2192      C2193   1.278       .  A
C2193      C3953   1.445       .  S
O2194     Zr2195   2.439       .  S
O2194      H2223   0.990       .  S
Zr2195     O2198   2.437       .  S
Zr2195     O2199   2.436       .  S
Zr2195     O2200   2.428       .  S
O2196      C2201   1.313       .  A
O2197      H2214   0.988       .  S
O2197      H2229   0.988       .  S
O2198      H2215   0.990       .  S
O2199      H2219   0.990       .  S
O2199      H2228   0.990       .  S
O2200      C2201   1.279       .  A
C2201      C2386   1.529       .  S
O2202      H2221   0.991       .  S
O2202      H2225   0.989       .  S
O2203      H2217   0.990       .  S
O2203      H2224   0.990       .  S
O2204      C2208   1.257       .  A
O2205      C2208   1.296       .  A
O2206      H2216   0.990       .  S
O2207      H2220   0.990       .  S
C2208      C2321   1.468       .  S
Zr2231     O2232   2.436       .  S
Zr2231     O2233   2.423       .  S
Zr2231     O2234   2.457       .  S
Zr2231     O2237   2.377       .  S
Zr2231     O2239   2.375       .  S
Zr2231     O2240   2.401       .  S
Zr2231     O2241   2.414       .  S
Zr2231     O2242   2.425       .  S
O2232      H2288   0.990       .  S
O2232      H2296   0.989       .  S
O2233      C2253   1.278       .  A
O2234      C2255   1.270       .  A
O2235     Zr2245   2.396       .  S
O2235      C2254   1.276       .  A
O2236     Zr2244   2.376       .  S
O2236      C2255   1.260       .  A
O2237      C2254   1.281       .  A
O2238     Zr2246   2.555       .  S
O2238      C2253   1.304       .  A
O2239     Zr2244   2.413       .  S
O2239     Zr2246   2.354       .  S
O2240     Zr2245   2.437       .  S
O2240     Zr2246   2.336       .  S
O2240      H2275   0.966       .  S
O2241     Zr2244   2.409       .  S
O2241     Zr2261   2.369       .  S
O2241      H2278   0.957       .  S
O2242     Zr2245   2.433       .  S
O2242     Zr2261   2.381       .  S
Zr2243     O2268   2.416       .  S
Zr2243     O2262   2.580       .  S
Zr2243     O2270   2.354       .  S
Zr2243     O2258   2.452       .  S
Zr2243     O2249   2.460       .  S
Zr2243     O2250   2.414       .  S
Zr2243     O2251   2.332       .  S
Zr2243     O2252   2.360       .  S
Zr2244     O2263   2.442       .  S
Zr2244     O2256   2.431       .  S
Zr2244     O2257   2.382       .  S
Zr2244     O2250   2.373       .  S
Zr2244     O2251   2.395       .  S
Zr2245     O2247   2.435       .  S
Zr2245     O2269   2.434       .  S
Zr2245     O2271   2.513       .  S
Zr2245     O2249   2.364       .  S
Zr2245     O2252   2.383       .  S
Zr2246     O2272   2.436       .  S
Zr2246     O2273   2.435       .  S
Zr2246     O2248   2.437       .  S
Zr2246     O2249   2.475       .  S
Zr2246     O2250   2.406       .  S
O2247      H2284   0.990       .  S
O2248      H2279   0.990       .  S
O2248      H2293   0.990       .  S
O2250      H2276   0.961       .  S
O2251     Zr2261   2.412       .  S
O2252     Zr2261   2.378       .  S
O2252      H2277   0.965       .  S
C2253      C3869   1.546       .  S
C2254      C3900   1.444       .  S
C2255      C3886   1.490       .  S
O2256      H2292   0.991       .  S
O2257      C2259   1.269       .  A
O2258      C2259   1.289       .  A
C2259      C3956   1.462       .  S
O2260     Zr2261   2.437       .  S
O2260      H2289   0.990       .  S
Zr2261     O2264   2.438       .  S
Zr2261     O2265   2.434       .  S
Zr2261     O2266   2.396       .  S
O2262      C2267   1.314       .  A
O2263      H2280   0.987       .  S
O2263      H2295   0.988       .  S
O2264      H2281   0.990       .  S
O2265      H2285   0.990       .  S
O2265      H2294   0.990       .  S
O2266      C2267   1.271       .  A
C2267      C2320   1.520       .  S
O2268      H2287   0.989       .  S
O2268      H2291   0.988       .  S
O2269      H2283   0.990       .  S
O2269      H2290   0.990       .  S
O2270      C2274   1.263       .  A
O2271      C2274   1.294       .  A
O2272      H2282   0.990       .  S
O2273      H2286   0.990       .  S
C2274      C2387   1.477       .  S
Zr2297     O2298   2.421       .  S
Zr2297     O2299   2.387       .  S
Zr2297     O2300   2.480       .  S
Zr2297     O2303   2.406       .  S
Zr2297     O2305   2.360       .  S
Zr2297     O2306   2.392       .  S
Zr2297     O2307   2.384       .  S
Zr2297     O2308   2.405       .  S
O2298      H2354   0.990       .  S
O2298      H2362   0.989       .  S
O2299      C2319   1.275       .  A
O2300      C2321   1.297       .  A
O2301     Zr2311   2.573       .  S
O2301      C2320   1.317       .  A
O2302     Zr2310   2.391       .  S
O2302      C2321   1.269       .  A
O2303      C2320   1.276       .  A
O2304     Zr2312   2.427       .  S
O2304      C2319   1.281       .  A
O2305     Zr2310   2.402       .  S
O2305     Zr2312   2.392       .  S
O2306     Zr2311   2.388       .  S
O2306     Zr2312   2.372       .  S
O2306      H2341   0.965       .  S
O2307     Zr2310   2.400       .  S
O2307      H2344   0.965       .  S
O2308     Zr2311   2.405       .  S
Zr2309     O2334   2.444       .  S
Zr2309     O2315   2.412   1_554  S
Zr2309     O2316   2.397   1_554  S
Zr2309     O2317   2.365       .  S
Zr2309     O2318   2.394   1_554  S
Zr2310     O2329   2.441       .  S
Zr2310     O2322   2.435       .  S
Zr2310     O2323   2.378       .  S
Zr2310     O2316   2.407       .  S
Zr2310     O2317   2.399   1_556  S
Zr2311     O2313   2.435       .  S
Zr2311     O2335   2.436       .  S
Zr2311     O2337   2.570       .  S
Zr2311     O2315   2.418       .  S
Zr2311     O2318   2.392       .  S
Zr2312     O2338   2.435       .  S
Zr2312     O2339   2.440       .  S
Zr2312     O2314   2.437       .  S
Zr2312     O2315   2.401       .  S
Zr2312     O2316   2.398       .  S
O2313      H2350   0.990       .  S
O2314      H2345   0.990       .  S
O2314      H2359   0.990       .  S
O2316      H2342   0.965       .  S
C2319      C2385   1.452       .  S
O2322      H2358   0.990       .  S
O2323      C2325   1.267   1_556  A
Zr2327     O2330   2.438       .  S
Zr2327     O2331   2.437       .  S
Zr2327     O2332   2.414       .  S
O2328      C2333   1.271       .  A
O2329      H2346   0.990       .  S
O2329      H2361   0.990       .  S
O2330      H2347   0.990       .  S
O2331      H2351   0.990       .  S
O2331      H2360   0.990       .  S
O2332      C2333   1.279       .  A
C2333      C2399   1.444       .  S
O2334      H2353   0.990       .  S
O2334      H2357   0.990       .  S
O2335      H2349   0.990       .  S
O2335      H2356   0.990       .  S
O2337      C2340   1.314   1_556  A
O2338      H2348   0.990       .  S
O2339      H2352   0.990       .  S
Zr2363     O2364   2.430       .  S
Zr2363     O2365   2.403       .  S
Zr2363     O2366   2.465       .  S
Zr2363     O2369   2.426       .  S
Zr2363     O2371   2.376       .  S
Zr2363     O2372   2.387       .  S
Zr2363     O2373   2.390       .  S
Zr2363     O2374   2.396       .  S
O2364      H2420   0.987       .  S
O2364      H2428   0.989       .  S
O2365      C2385   1.283       .  A
O2366      C2387   1.296       .  A
O2367     Zr2377   2.577       .  S
O2367      C2386   1.318       .  A
O2368     Zr2376   2.434       .  S
O2368      C2387   1.281       .  A
O2369      C2386   1.282       .  A
O2370     Zr2378   2.418       .  S
O2370      C2385   1.280       .  A
O2371     Zr2376   2.405       .  S
O2371     Zr2378   2.385       .  S
O2372     Zr2377   2.385       .  S
O2372     Zr2378   2.373       .  S
O2372      H2407   0.965       .  S
O2373     Zr2376   2.401       .  S
O2373     Zr2393   2.384       .  S
O2373      H2410   0.965       .  S
O2374     Zr2377   2.398       .  S
O2374     Zr2393   2.388       .  S
Zr2375     O2400   2.425       .  S
Zr2375     O2394   2.406       .  S
Zr2375     O2402   2.433       .  S
Zr2375     O2390   2.474       .  S
Zr2375     O2381   2.399       .  S
Zr2375     O2382   2.390       .  S
Zr2375     O2383   2.372       .  S
Zr2375     O2384   2.388       .  S
Zr2376     O2395   2.436       .  S
Zr2376     O2388   2.435       .  S
Zr2376     O2389   2.450       .  S
Zr2376     O2382   2.394       .  S
Zr2376     O2383   2.396       .  S
Zr2377     O2379   2.434       .  S
Zr2377     O2401   2.435       .  S
Zr2377     O2403   2.584       .  S
Zr2377     O2381   2.394       .  S
Zr2377     O2384   2.380       .  S
Zr2378     O2404   2.435       .  S
Zr2378     O2405   2.438       .  S
Zr2378     O2380   2.438       .  S
Zr2378     O2381   2.394       .  S
Zr2378     O2382   2.394       .  S
O2379      H2416   0.990       .  S
O2380      H2411   0.990       .  S
O2380      H2425   0.990       .  S
O2382      H2408   0.965       .  S
O2383     Zr2393   2.390       .  S
O2384     Zr2393   2.376       .  S
O2384      H2409   0.965       .  S
O2388      H2424   0.990       .  S
O2389      C2391   1.284       .  A
O2390      C2391   1.298       .  A
O2392     Zr2393   2.437       .  S
O2392      H2421   0.990       .  S
Zr2393     O2396   2.435       .  S
Zr2393     O2397   2.438       .  S
Zr2393     O2398   2.398       .  S
O2394      C2399   1.285       .  A
O2395      H2412   0.990       .  S
O2395      H2427   0.990       .  S
O2396      H2413   0.990       .  S
O2397      H2417   0.990       .  S
O2397      H2426   0.990       .  S
O2398      C2399   1.276       .  A
O2400      H2419   0.989       .  S
O2400      H2423   0.990       .  S
O2401      H2415   0.990       .  S
O2401      H2422   0.990       .  S
O2402      C2406   1.285       .  A
O2403      C2406   1.320       .  A
O2404      H2414   0.990       .  S
O2405      H2418   0.990       .  S
Zr2429     O2430   2.438       .  S
Zr2429     O2431   2.434       .  S
Zr2429     O2432   2.399       .  S
Zr2429     O2435   2.484       .  S
Zr2429     O2437   2.396       .  S
Zr2429     O2438   2.375       .  S
Zr2429     O2439   2.425       .  S
Zr2429     O2440   2.361       .  S
O2430      H2486   0.982       .  S
O2430      H2494   0.989       .  S
O2431      C2451   1.286       .  A
O2432      C2453   1.282       .  A
O2433     Zr2443   2.396       .  S
O2433      C2452   1.260       .  A
O2434     Zr2442   2.427       .  S
O2434      C2453   1.283       .  A
O2435      C2452   1.285       .  A
O2436     Zr2444   2.518       .  S
O2436      C2451   1.299       .  A
O2437     Zr2442   2.413       .  S
O2437     Zr2444   2.354       .  S
O2438     Zr2443   2.386       .  S
O2438     Zr2444   2.363       .  S
O2438      H2473   0.966       .  S
O2439     Zr2442   2.431       .  S
O2439     Zr2459   2.393       .  S
O2439      H2476   0.965       .  S
O2440     Zr2443   2.383       .  S
O2440     Zr2459   2.359       .  S
Zr2441     O2466   2.434       .  S
Zr2441     O2460   2.546       .  S
Zr2441     O2468   2.432       .  S
Zr2441     O2456   2.344       .  S
Zr2441     O2447   2.407       .  S
Zr2441     O2448   2.448       .  S
Zr2441     O2449   2.356       .  S
Zr2441     O2450   2.336       .  S
Zr2442     O2461   2.435       .  S
Zr2442     O2454   2.436       .  S
Zr2442     O2455   2.505       .  S
Zr2442     O2448   2.381       .  S
Zr2442     O2449   2.393       .  S
Zr2443     O2445   2.440       .  S
Zr2443     O2467   2.451       .  S
Zr2443     O2469   2.372       .  S
Zr2443     O2447   2.353       .  S
Zr2443     O2450   2.425       .  S
Zr2444     O2470   2.434       .  S
Zr2444     O2471   2.436       .  S
Zr2444     O2446   2.437       .  S
Zr2444     O2447   2.417       .  S
Zr2444     O2448   2.442       .  S
O2445      H2482   0.990       .  S
O2446      H2477   0.990       .  S
O2446      H2491   0.990       .  S
O2448      H2474   0.965       .  S
O2449     Zr2459   2.376       .  S
O2450     Zr2459   2.412       .  S
O2450      H2475   0.965       .  S
C2451      C3827   1.539       .  S
C2452      C3844   1.496       .  S
C2453      C3970   1.458       .  S
O2454      H2490   0.990       .  S
O2455      C2457   1.295       .  A
O2456      C2457   1.268       .  A
C2457      C2736   1.471       .  S
O2458     Zr2459   2.439       .  S
O2458      H2487   0.990       .  S
Zr2459     O2462   2.438       .  S
Zr2459     O2463   2.442       .  S
Zr2459     O2464   2.404       .  S
O2460      C2465   1.305       .  A
O2461      H2478   0.990       .  S
O2461      H2493   0.989       .  S
O2462      H2479   0.990       .  S
O2463      H2483   0.990       .  S
O2463      H2492   0.990       .  S
O2464      C2465   1.274       .  A
C2465      C2783   1.514       .  S
O2466      H2485   0.988       .  S
O2466      H2489   0.990       .  S
O2467      H2481   0.989       .  S
O2467      H2488   0.990       .  S
O2468      C2472   1.286       .  A
O2469      C2472   1.268       .  A
O2470      H2480   0.990       .  S
O2471      H2484   0.990       .  S
C2472      C3855   1.470       .  S
Zr2495     O2496   2.450       .  S
Zr2495     O2497   2.420       .  S
Zr2495     O2498   2.422       .  S
Zr2495     O2501   2.482       .  S
Zr2495     O2503   2.393       .  S
Zr2495     O2504   2.448       .  S
Zr2495     O2505   2.451       .  S
Zr2495     O2506   2.410       .  S
O2496      H2552   0.988       .  S
O2496      H2560   0.984       .  S
O2497      C2517   1.281       .  A
O2498      C2519   1.264   1_655  A
O2499     Zr2509   2.314       .  S
O2499      C2518   1.239       .  A
O2500     Zr2508   2.464       .  S
O2500      C2519   1.278   1_655  A
O2501      C2518   1.260       .  A
O2502     Zr2510   2.559       .  S
O2502      C2517   1.307       .  A
O2503     Zr2508   2.431       .  S
O2503     Zr2510   2.340       .  S
O2504     Zr2509   2.428       .  S
O2504     Zr2510   2.351       .  S
O2504      H2539   0.981       .  S
O2505     Zr2508   2.449       .  S
O2505     Zr2525   2.392       .  S
O2505      H2542   0.966       .  S
O2506     Zr2509   2.394       .  S
O2506     Zr2525   2.396       .  S
Zr2507     O2532   2.450       .  S
Zr2507     O2526   2.577       .  S
Zr2507     O2534   2.401       .  S
Zr2507     O2522   2.324       .  S
Zr2507     O2513   2.446       .  S
Zr2507     O2514   2.476       .  S
Zr2507     O2515   2.380       .  S
Zr2507     O2516   2.366       .  S
Zr2508     O2527   2.439       .  S
Zr2508     O2520   2.434       .  S
Zr2508     O2521   2.534       .  S
Zr2508     O2514   2.401       .  S
Zr2508     O2515   2.407       .  S
Zr2509     O2511   2.440       .  S
Zr2509     O2533   2.437       .  S
Zr2509     O2535   2.372       .  S
Zr2509     O2513   2.365       .  S
Zr2509     O2516   2.400       .  S
Zr2510     O2536   2.436       .  S
Zr2510     O2537   2.435       .  S
Zr2510     O2512   2.437       .  S
Zr2510     O2513   2.448       .  S
Zr2510     O2514   2.429       .  S
O2511      H2548   0.989       .  S
O2512      H2543   0.990       .  S
O2512      H2557   0.990       .  S
O2514      H2540   0.966       .  S
O2515     Zr2525   2.370       .  S
O2516     Zr2525   2.392       .  S
O2516      H2541   0.950       .  S
C2517      C3799   1.536   1_655  S
C2518      C3813   1.465       .  S
C2519      C3939   1.456       .  S
O2520      H2556   0.990       .  S
O2521      C2523   1.293       .  A
O2522      C2523   1.244       .  A
C2523      C2782   1.466       .  S
O2524     Zr2525   2.435       .  S
O2524      H2553   0.990       .  S
Zr2525     O2528   2.439       .  S
Zr2525     O2529   2.442       .  S
Zr2525     O2530   2.423       .  S
O2526      C2531   1.316       .  A
O2527      H2544   0.990       .  S
O2527      H2559   0.990       .  S
O2528      H2545   0.990       .  S
O2529      H2549   0.989       .  S
O2529      H2558   0.990       .  S
O2530      C2531   1.277       .  A
C2531      C2721   1.534       .  S
O2532      H2551   0.990       .  S
O2532      H2555   0.988       .  S
O2533      H2547   0.986       .  S
O2533      H2554   0.989       .  S
O2534      C2538   1.261       .  A
O2535      C2538   1.262       .  A
O2536      H2546   0.990       .  S
O2537      H2550   0.990       .  S
C2538      C3858   1.467       .  S
Zr2561     O2563   2.431       .  S
Zr2561     O2564   2.438       .  S
Zr2561     O2567   2.489   1_556  S
Zr2561     O2569   2.374       .  S
Zr2561     O2570   2.368       .  S
Zr2561     O2571   2.428       .  S
Zr2561     O2572   2.311       .  S
O2562      H2618   0.980       .  S
O2562      H2626   0.984       .  S
O2563      C2583   1.283       .  A
O2564      C2585   1.274       .  A
O2565     Zr2575   2.354   1_554  S
O2565      C2584   1.271       .  A
O2566     Zr2574   2.433       .  S
O2566      C2585   1.276       .  A
O2567      C2584   1.298       .  A
O2568     Zr2576   2.574       .  S
O2568      C2583   1.308       .  A
O2569     Zr2574   2.427       .  S
O2569     Zr2576   2.360       .  S
O2570     Zr2575   2.381       .  S
O2570     Zr2576   2.359       .  S
O2570      H2605   0.963       .  S
O2571     Zr2574   2.444       .  S
O2571     Zr2591   2.386       .  S
O2571      H2608   0.962       .  S
O2572     Zr2575   2.337       .  S
O2572     Zr2591   2.339       .  S
Zr2573     O2598   2.453       .  S
Zr2573     O2592   2.587       .  S
Zr2573     O2600   2.394       .  S
Zr2573     O2588   2.337       .  S
Zr2573     O2579   2.441       .  S
Zr2573     O2580   2.464       .  S
Zr2573     O2581   2.369       .  S
Zr2573     O2582   2.349       .  S
Zr2574     O2593   2.441       .  S
Zr2574     O2586   2.434       .  S
Zr2574     O2587   2.500       .  S
Zr2574     O2580   2.395       .  S
Zr2574     O2581   2.402       .  S
Zr2575     O2599   2.443       .  S
Zr2575     O2601   2.373       .  S
Zr2575     O2579   2.351       .  S
Zr2575     O2582   2.414       .  S
Zr2576     O2602   2.434       .  S
Zr2576     O2603   2.436       .  S
Zr2576     O2578   2.439       .  S
Zr2576     O2579   2.449       .  S
Zr2576     O2580   2.462       .  S
O2578      H2609   0.990       .  S
O2578      H2623   0.990       .  S
O2580      H2606   0.965       .  S
O2581     Zr2591   2.373       .  S
O2582     Zr2591   2.414       .  S
O2582      H2607   0.965       .  S
C2583      C3757   1.567       .  S
C2585      C4026   1.473       .  S
O2586      H2622   0.990       .  S
O2587      C2589   1.291       .  A
O2588      C2589   1.255       .  A
C2589      C2716   1.459       .  S
O2590      H2619   0.990       .  S
Zr2591     O2596   2.385   1_556  S
O2592      C2597   1.317       .  A
O2593      H2610   0.990       .  S
O2593      H2625   0.990       .  S
O2594      H2611   0.990       .  S
O2595      H2615   0.990       .  S
O2595      H2624   0.990       .  S
O2596      C2597   1.270   1_554  A
O2598      H2617   0.991       .  S
O2598      H2621   0.988       .  S
O2599      H2613   0.990       .  S
O2599      H2620   0.990       .  S
O2600      C2604   1.274       .  A
O2601      C2604   1.265       .  A
O2602      H2612   0.990       .  S
O2603      H2616   0.990       .  S
C2604      C3785   1.436       .  S
Zr2627     O2628   2.432   1_655  S
Zr2627     O2629   2.458   1_655  S
Zr2627     O2630   2.436   1_655  S
Zr2627     O2633   2.521       .  S
Zr2627     O2635   2.383       .  S
Zr2627     O2636   2.377       .  S
Zr2627     O2637   2.441       .  S
Zr2627     O2638   2.299       .  S
O2628      H2684   0.988       .  S
O2628      H2692   0.984       .  S
O2629      C2649   1.287       .  A
O2630      C2651   1.271       .  A
O2631     Zr2641   2.392       .  S
O2631      C2650   1.280       .  A
O2632     Zr2640   2.438       .  S
O2632      C2651   1.277   1_655  A
O2633      C2650   1.305       .  A
O2634     Zr2642   2.526       .  S
O2635     Zr2640   2.426       .  S
O2636     Zr2641   2.400       .  S
O2636      H2671   0.964       .  S
O2637     Zr2640   2.442       .  S
O2637     Zr2657   2.411       .  S
O2637      H2674   0.956       .  S
O2638     Zr2641   2.287       .  S
O2638     Zr2657   2.348       .  S
Zr2639     O2658   2.547       .  S
Zr2639     O2666   2.406       .  S
Zr2639     O2645   2.430       .  S
Zr2639     O2647   2.363       .  S
Zr2639     O2648   2.341       .  S
Zr2640     O2659   2.437       .  S
Zr2640     O2647   2.399       .  S
Zr2641     O2643   2.436       .  S
Zr2641     O2665   2.426       .  S
Zr2641     O2667   2.369       .  S
Zr2641     O2645   2.369       .  S
Zr2641     O2648   2.413       .  S
Zr2642     O2668   2.434       .  S
Zr2642     O2669   2.437       .  S
Zr2642     O2644   2.439       .  S
Zr2642     O2646   2.445       .  S
O2643      H2680   0.990       .  S
O2644      H2675   0.990       .  S
O2644      H2689   0.990       .  S
O2646      H2672   0.966       .  S
O2647     Zr2657   2.354       .  S
O2648     Zr2657   2.413       .  S
O2648      H2673   0.965       .  S
C2649      C3729   1.543   1_556  S
C2650      C3743   1.489       .  S
C2651      C3883   1.467       .  S
O2652      H2688   0.990       .  S
O2653      C2655   1.292       .  A
O2654      C2655   1.269       .  A
C2655      C2802   1.465       .  S
O2656     Zr2657   2.431       .  S
O2656      H2685   0.990       .  S
Zr2657     O2660   2.434       .  S
Zr2657     O2661   2.437       .  S
Zr2657     O2662   2.409       .  S
O2658      C2663   1.308       .  A
O2659      H2676   0.990       .  S
O2659      H2691   0.990       .  S
O2660      H2677   0.990       .  S
O2661      H2681   0.990       .  S
O2661      H2690   0.989       .  S
O2662      C2663   1.274       .  A
C2663      C2717   1.520       .  S
O2664      H2683   0.988       .  S
O2664      H2687   0.990       .  S
O2665      H2679   0.990       .  S
O2665      H2686   0.988       .  S
O2666      C2670   1.282       .  A
O2667      C2670   1.267       .  A
O2668      H2678   0.990       .  S
O2669      H2682   0.990       .  S
C2670      C3788   1.440       .  S
Zr2693     O2694   2.443       .  S
Zr2693     O2695   2.390       .  S
Zr2693     O2696   2.444       .  S
Zr2693     O2699   2.458       .  S
Zr2693     O2701   2.390       .  S
Zr2693     O2702   2.375       .  S
Zr2693     O2703   2.414       .  S
Zr2693     O2704   2.391       .  S
O2694      H2750   0.991       .  S
O2694      H2758   0.990       .  S
O2695      C2715   1.275       .  A
O2696      C2717   1.282       .  A
O2697     Zr2707   2.392       .  S
O2697      C2716   1.270       .  A
O2698     Zr2706   2.543       .  S
O2698      C2717   1.310       .  A
O2699      C2716   1.293       .  A
O2700     Zr2708   2.439       .  S
O2700      C2715   1.282       .  A
O2701     Zr2706   2.415       .  S
O2701     Zr2708   2.376       .  S
O2702     Zr2707   2.415       .  S
O2702     Zr2708   2.380       .  S
O2702      H2737   0.966       .  S
O2703     Zr2706   2.428       .  S
O2703     Zr2723   2.388       .  S
O2703      H2740   0.965       .  S
O2704     Zr2707   2.414       .  S
O2704     Zr2723   2.398       .  S
Zr2705     O2730   2.415       .  S
Zr2705     O2724   2.408       .  S
Zr2705     O2732   2.421       .  S
Zr2705     O2720   2.416       .  S
Zr2705     O2711   2.385       .  S
Zr2705     O2712   2.404       .  S
Zr2705     O2713   2.371       .  S
Zr2705     O2714   2.361       .  S
Zr2706     O2725   2.434       .  S
Zr2706     O2718   2.435       .  S
Zr2706     O2719   2.599       .  S
Zr2706     O2712   2.392       .  S
Zr2706     O2713   2.381       .  S
Zr2707     O2709   2.435       .  S
Zr2707     O2731   2.437       .  S
Zr2707     O2733   2.443       .  S
Zr2707     O2711   2.379       .  S
Zr2707     O2714   2.389       .  S
Zr2708     O2734   2.436       .  S
Zr2708     O2735   2.439       .  S
Zr2708     O2710   2.438       .  S
Zr2708     O2711   2.407       .  S
Zr2708     O2712   2.402       .  S
O2709      H2746   0.990       .  S
O2710      H2741   0.990       .  S
O2710      H2755   0.990       .  S
O2712      H2738   0.966       .  S
O2713     Zr2723   2.380       .  S
O2714     Zr2723   2.385       .  S
O2714      H2739   0.965       .  S
C2715      C2795   1.466       .  S
O2718      H2754   0.990       .  S
O2719      C2721   1.322       .  A
O2720      C2721   1.280       .  A
O2722     Zr2723   2.440       .  S
O2722      H2751   0.990       .  S
Zr2723     O2726   2.437       .  S
Zr2723     O2727   2.440       .  S
Zr2723     O2728   2.429       .  S
O2724      C2729   1.284       .  A
O2725      H2742   0.990       .  S
O2725      H2757   0.990       .  S
O2726      H2743   0.990       .  S
O2727      H2747   0.990       .  S
O2727      H2756   0.990       .  S
O2728      C2729   1.281       .  A
C2729      C2781   1.464       .  S
O2730      H2749   0.990       .  S
O2730      H2753   0.988       .  S
O2731      H2745   0.990       .  S
O2731      H2752   0.990       .  S
O2732      C2736   1.287       .  A
O2733      C2736   1.281       .  A
O2734      H2744   0.990       .  S
O2735      H2748   0.990       .  S
Zr2759     O2760   2.449       .  S
Zr2759     O2761   2.382       .  S
Zr2759     O2762   2.443       .  S
Zr2759     O2765   2.464       .  S
Zr2759     O2767   2.388       .  S
Zr2759     O2768   2.372       .  S
Zr2759     O2769   2.417       .  S
Zr2759     O2770   2.391       .  S
O2760      H2816   0.990       .  S
O2760      H2824   0.989       .  S
O2761      C2781   1.272       .  A
O2762      C2783   1.282       .  A
O2763     Zr2773   2.402       .  S
O2763      C2782   1.270       .  A
O2764     Zr2772   2.534       .  S
O2764      C2783   1.307       .  A
O2765      C2782   1.295       .  A
O2766     Zr2774   2.441       .  S
O2766      C2781   1.282       .  A
O2767     Zr2772   2.411       .  S
O2767     Zr2774   2.377       .  S
O2768     Zr2773   2.408       .  S
O2768     Zr2774   2.381       .  S
O2768      H2803   0.966       .  S
O2769     Zr2772   2.424       .  S
O2769     Zr2789   2.387       .  S
O2769      H2806   0.965       .  S
O2770     Zr2773   2.410       .  S
O2770     Zr2789   2.405       .  S
Zr2771     O2796   2.440       .  S
Zr2771     O2798   2.424       .  S
Zr2771     O2786   2.425       .  S
Zr2771     O2777   2.394       .  S
Zr2771     O2778   2.407       .  S
Zr2771     O2779   2.379       .  S
Zr2771     O2780   2.370       .  S
Zr2772     O2791   2.435       .  S
Zr2772     O2784   2.435       .  S
Zr2772     O2785   2.566       .  S
Zr2772     O2778   2.406       .  S
Zr2772     O2779   2.386       .  S
Zr2773     O2775   2.436       .  S
Zr2773     O2797   2.436       .  S
Zr2773     O2799   2.416       .  S
Zr2773     O2777   2.395       .  S
Zr2773     O2780   2.398       .  S
Zr2774     O2800   2.435       .  S
Zr2774     O2801   2.435       .  S
Zr2774     O2776   2.436       .  S
Zr2774     O2777   2.407       .  S
Zr2774     O2778   2.400       .  S
O2775      H2812   0.990       .  S
O2776      H2807   0.990       .  S
O2776      H2821   0.990       .  S
O2778      H2804   0.966       .  S
O2779     Zr2789   2.381       .  S
O2780     Zr2789   2.383       .  S
O2780      H2805   0.965       .  S
O2784      H2820   0.990       .  S
O2785      C2787   1.316       .  A
O2786      C2787   1.278       .  A
O2788     Zr2789   2.440       .  S
O2788      H2817   0.990       .  S
O2790      C2795   1.282       .  A
O2791      H2808   0.990       .  S
O2791      H2823   0.990       .  S
O2792      H2809   0.990       .  S
O2793      H2813   0.990   1_554  S
O2793      H2822   0.990   1_554  S
O2794      C2795   1.281       .  A
O2796      H2815   0.990       .  S
O2796      H2819   0.991       .  S
O2797      H2811   0.990       .  S
O2797      H2818   0.990       .  S
O2798      C2802   1.287       .  A
O2799      C2802   1.277       .  A
O2800      H2810   0.990       .  S
O2801      H2814   0.990       .  S
Zr2825     O2826   2.438       .  S
Zr2825     O2827   2.442       .  S
Zr2825     O2828   2.432       .  S
Zr2825     O2831   2.340       .  S
Zr2825     O2833   2.376       .  S
Zr2825     O2834   2.422       .  S
Zr2825     O2835   2.411       .  S
Zr2825     O2836   2.430       .  S
O2826      H2882   0.987       .  S
O2826      H2890   0.989       .  S
O2827      C2847   1.284       .  A
O2828      C2849   1.273       .  A
O2829     Zr2839   2.524       .  S
O2829      C2848   1.303       .  A
O2830     Zr2838   2.402       .  S
O2830      C2849   1.268       .  A
O2831      C2848   1.257       .  A
O2832     Zr2840   2.558       .  S
O2832      C2847   1.305       .  A
O2833     Zr2838   2.394       .  S
O2833     Zr2840   2.365       .  S
O2834     Zr2839   2.395       .  S
O2834     Zr2840   2.315       .  S
O2834      H2869   0.967       .  S
O2835     Zr2838   2.395       .  S
O2835     Zr2855   2.382       .  S
O2835      H2872   0.958       .  S
O2836     Zr2839   2.410       .  S
O2836     Zr2855   2.410       .  S
Zr2837     O2862   2.431       .  S
Zr2837     O2856   2.604       .  S
Zr2837     O2864   2.340       .  S
Zr2837     O2852   2.419       .  S
Zr2837     O2843   2.445       .  S
Zr2837     O2844   2.426       .  S
Zr2837     O2845   2.351       .  S
Zr2837     O2846   2.389       .  S
Zr2838     O2857   2.438       .  S
Zr2838     O2850   2.426       .  S
Zr2838     O2851   2.371       .  S
Zr2838     O2844   2.397       .  S
Zr2838     O2845   2.397       .  S
Zr2839     O2841   2.434       .  S
Zr2839     O2863   2.434       .  S
Zr2839     O2865   2.527       .  S
Zr2839     O2843   2.401       .  S
Zr2839     O2846   2.418       .  S
Zr2840     O2866   2.436       .  S
Zr2840     O2867   2.435       .  S
Zr2840     O2842   2.437       .  S
Zr2840     O2843   2.440       .  S
Zr2840     O2844   2.418       .  S
O2841      H2878   0.990       .  S
O2842      H2873   0.990       .  S
O2842      H2887   0.990       .  S
O2844      H2870   0.966       .  S
O2845     Zr2855   2.392       .  S
O2846     Zr2855   2.366       .  S
O2846      H2871   0.965       .  S
C2847      C4012   1.551       .  S
C2848      C3774   1.490       .  S
C2849      C3701   1.493       .  S
O2850      H2886   0.991       .  S
O2851      C2853   1.260       .  A
O2852      C2853   1.276       .  A
C2853      C3718   1.460       .  S
O2854      H2883   0.990       .  S
Zr2855     O2858   2.439       .  S
Zr2855     O2859   2.436       .  S
Zr2855     O2860   2.438       .  S
O2856      C2861   1.322       .  A
O2857      H2874   0.989       .  S
O2857      H2889   0.987       .  S
O2859      H2879   0.990       .  S
O2859      H2888   0.990       .  S
O2860      C2861   1.281       .  A
C2861      C3112   1.553       .  S
O2862      H2881   0.987       .  S
O2862      H2885   0.991       .  S
O2863      H2877   0.990       .  S
O2863      H2884   0.990       .  S
O2864      C2868   1.249       .  A
O2865      C2868   1.290       .  A
O2866      H2876   0.990       .  S
O2867      H2880   0.990       .  S
C2868      C3179   1.484       .  S
Zr2891     O2892   2.430       .  S
Zr2891     O2893   2.423       .  S
Zr2891     O2894   2.458       .  S
Zr2891     O2897   2.400       .  S
Zr2891     O2899   2.386       .  S
Zr2891     O2900   2.394       .  S
Zr2891     O2901   2.418       .  S
Zr2891     O2902   2.422       .  S
O2892      H2948   0.990       .  S
O2892      H2956   0.989       .  S
O2893      C2913   1.282       .  A
O2894      C2915   1.276       .  A
O2895     Zr2905   2.447       .  S
O2895      C2914   1.289       .  A
O2896     Zr2904   2.373       .  S
O2896      C2915   1.261       .  A
O2897      C2914   1.285       .  A
O2898     Zr2906   2.530       .  S
O2899     Zr2904   2.412       .  S
O2900     Zr2905   2.413       .  S
O2900      H2935   0.965       .  S
O2901     Zr2904   2.412       .  S
O2901     Zr2921   2.387       .  S
O2901      H2938   0.963       .  S
O2902     Zr2905   2.417       .  S
O2902     Zr2921   2.405       .  S
Zr2903     O2922   2.568       .  S
Zr2903     O2918   2.463       .  S
Zr2903     O2909   2.455       .  S
Zr2903     O2910   2.412       .  S
Zr2903     O2911   2.340       .  S
Zr2903     O2912   2.378       .  S
Zr2904     O2923   2.447       .  S
Zr2904     O2916   2.439       .  S
Zr2904     O2917   2.393       .  S
Zr2904     O2910   2.376       .  S
Zr2904     O2911   2.389       .  S
Zr2905     O2907   2.434       .  S
Zr2905     O2931   2.486       .  S
Zr2905     O2909   2.382       .  S
Zr2905     O2912   2.409       .  S
Zr2906     O2932   2.437   1_554  S
Zr2906     O2933   2.435   1_554  S
Zr2906     O2908   2.437   1_554  S
O2907      H2944   0.990       .  S
O2908      H2939   0.990       .  S
O2908      H2953   0.990   1_556  S
O2911     Zr2921   2.408       .  S
O2912     Zr2921   2.375       .  S
O2912      H2937   0.966       .  S
C2913      C3998   1.526       .  S
C2914      C3841   1.476   1_545  S
C2915      C3690   1.493       .  S
O2916      H2952   0.991       .  S
O2917      C2919   1.271       .  A
O2918      C2919   1.292       .  A
C2919      C3715   1.481       .  S
O2920     Zr2921   2.440       .  S
O2920      H2949   0.990       .  S
Zr2921     O2924   2.437       .  S
Zr2921     O2925   2.438       .  S
Zr2921     O2926   2.432       .  S
O2922      C2927   1.311       .  A
O2923      H2940   0.988       .  S
O2923      H2955   0.988       .  S
O2924      H2941   0.990       .  S
O2925      H2945   0.990       .  S
O2925      H2954   0.990       .  S
O2926      C2927   1.280       .  A
C2927      C3178   1.536       .  S
O2928      H2947   0.986       .  S
O2928      H2951   0.989       .  S
O2929      H2943   0.990       .  S
O2929      H2950   0.990       .  S
O2930      C2934   1.261       .  A
O2932      H2942   0.990       .  S
O2933      H2946   0.990       .  S
Zr2957     O2958   2.415       .  S
Zr2957     O2959   2.417       .  S
Zr2957     O2960   2.446       .  S
Zr2957     O2963   2.417       .  S
Zr2957     O2965   2.374       .  S
Zr2957     O2966   2.397       .  S
Zr2957     O2967   2.421       .  S
Zr2957     O2968   2.425       .  S
O2958      H3014   0.986   1_545  S
O2958      H3022   0.986       .  S
O2959      C2979   1.279       .  A
O2960      C2981   1.269   1_655  A
O2961     Zr2971   2.441       .  S
O2961      C2980   1.284       .  A
O2962     Zr2970   2.378       .  S
O2962      C2981   1.259   1_655  A
O2963      C2980   1.278       .  A
O2964     Zr2972   2.551       .  S
O2964      C2979   1.304       .  A
O2965     Zr2970   2.385       .  S
O2965     Zr2972   2.343       .  S
O2966     Zr2971   2.426       .  S
O2966     Zr2972   2.361       .  S
O2966      H3001   0.966       .  S
O2967     Zr2970   2.404       .  S
O2967     Zr2987   2.403       .  S
O2967      H3004   0.963       .  S
O2968     Zr2971   2.423       .  S
O2968     Zr2987   2.394       .  S
Zr2969     O2994   2.440       .  S
Zr2969     O2988   2.543       .  S
Zr2969     O2996   2.338       .  S
Zr2969     O2984   2.425       .  S
Zr2969     O2975   2.443       .  S
Zr2969     O2976   2.414       .  S
Zr2969     O2977   2.329       .  S
Zr2969     O2978   2.365       .  S
Zr2970     O2989   2.436       .  S
Zr2970     O2982   2.432   1_655  S
Zr2970     O2983   2.340       .  S
Zr2970     O2976   2.379       .  S
Zr2970     O2977   2.395       .  S
Zr2971     O2973   2.436       .  S
Zr2971     O2995   2.437       .  S
Zr2971     O2997   2.510       .  S
Zr2971     O2975   2.386       .  S
Zr2971     O2978   2.393       .  S
Zr2972     O2998   2.437       .  S
Zr2972     O2999   2.434       .  S
Zr2972     O2974   2.435       .  S
Zr2972     O2975   2.447       .  S
Zr2972     O2976   2.441       .  S
O2973      H3010   0.990       .  S
O2974      H3005   0.990   1_655  S
O2974      H3019   0.990   1_655  S
O2976      H3002   0.966       .  S
O2977     Zr2987   2.378       .  S
O2978     Zr2987   2.377       .  S
O2978      H3003   0.966       .  S
C2979      C3914   1.556   1_655  S
C2980      C3816   1.466   1_545  S
C2981      C3659   1.483       .  S
O2982      H3018   0.992       .  S
O2983      C2985   1.257       .  A
O2984      C2985   1.288       .  A
C2985      C3673   1.459       .  S
O2986     Zr2987   2.435       .  S
O2986      H3015   0.990       .  S
Zr2987     O2990   2.436       .  S
Zr2987     O2991   2.433       .  S
Zr2987     O2992   2.449       .  S
O2988      C2993   1.306       .  A
O2989      H3006   0.987       .  S
O2989      H3021   0.987       .  S
O2990      H3007   0.990       .  S
O2991      H3011   0.990       .  S
O2991      H3020   0.990       .  S
O2992      C2993   1.283       .  A
C2993      C3198   1.531       .  S
O2994      H3013   0.990       .  S
O2994      H3017   0.990       .  S
O2995      H3009   0.990       .  S
O2995      H3016   0.990       .  S
O2996      C3000   1.268       .  A
O2997      C3000   1.298       .  A
O2998      H3008   0.990       .  S
O2999      H3012   0.990       .  S
C3000      C3117   1.474       .  S
Zr3023     O3024   2.440       .  S
Zr3023     O3025   2.491       .  S
Zr3023     O3026   2.433       .  S
Zr3023     O3029   2.358       .  S
Zr3023     O3031   2.361       .  S
Zr3023     O3032   2.401       .  S
Zr3023     O3033   2.389       .  S
Zr3023     O3034   2.422       .  S
O3024      H3080   0.986       .  S
O3024      H3088   0.988       .  S
O3025      C3045   1.287       .  A
O3026      C3047   1.280       .  A
O3027     Zr3037   2.551       .  S
O3027      C3046   1.304       .  A
O3028     Zr3036   2.342       .  S
O3028      C3047   1.262       .  A
O3029      C3046   1.259       .  A
O3030     Zr3038   2.518       .  S
O3030      C3045   1.297       .  A
O3031     Zr3036   2.385       .  S
O3031     Zr3038   2.376       .  S
O3032     Zr3037   2.427       .  S
O3032     Zr3038   2.333       .  S
O3032      H3067   0.965       .  S
O3033     Zr3036   2.394       .  S
O3033     Zr3053   2.377       .  S
O3033      H3070   0.965       .  S
O3034     Zr3037   2.399       .  S
O3034     Zr3053   2.391       .  S
Zr3035     O3060   2.425       .  S
Zr3035     O3054   2.493       .  S
Zr3035     O3062   2.350       .  S
Zr3035     O3050   2.401       .  S
Zr3035     O3041   2.442       .  S
Zr3035     O3042   2.415       .  S
Zr3035     O3043   2.330       .  S
Zr3035     O3044   2.385       .  S
Zr3036     O3055   2.439       .  S
Zr3036     O3048   2.428   1_655  S
Zr3036     O3049   2.397       .  S
Zr3036     O3042   2.362       .  S
Zr3036     O3043   2.372       .  S
Zr3037     O3039   2.434       .  S
Zr3037     O3061   2.433       .  S
Zr3037     O3063   2.567       .  S
Zr3037     O3041   2.391       .  S
Zr3037     O3044   2.422       .  S
Zr3038     O3064   2.436       .  S
Zr3038     O3065   2.435       .  S
Zr3038     O3040   2.435       .  S
Zr3038     O3041   2.425       .  S
Zr3038     O3042   2.420       .  S
O3039      H3076   0.990       .  S
O3040      H3071   0.990   1_655  S
O3040      H3085   0.990   1_655  S
O3042      H3068   0.964       .  S
O3043     Zr3053   2.390       .  S
O3044     Zr3053   2.380       .  S
O3044      H3069   0.966       .  S
C3045      C3872   1.546   1_655  S
C3046      C3746   1.504       .  S
C3047      C3645   1.430   1_655  S
O3048      H3084   0.989   1_455  S
O3049      C3051   1.272       .  A
O3050      C3051   1.278       .  A
C3051      C3676   1.476       .  S
O3052     Zr3053   2.438       .  S
O3052      H3081   0.990       .  S
Zr3053     O3056   2.440       .  S
Zr3053     O3057   2.437       .  S
Zr3053     O3058   2.407       .  S
O3054      C3059   1.295       .  A
O3055      H3072   0.990       .  S
O3055      H3087   0.990       .  S
O3056      H3073   0.990       .  S
O3057      H3077   0.990       .  S
O3057      H3086   0.990       .  S
O3058      C3059   1.273       .  A
C3059      C3132   1.491       .  S
O3060      H3079   0.989       .  S
O3060      H3083   0.985       .  S
O3061      H3075   0.990       .  S
O3061      H3082   0.990       .  S
O3062      C3066   1.258       .  A
O3063      C3066   1.304       .  A
O3064      H3074   0.990       .  S
O3065      H3078   0.990       .  S
C3066      C3183   1.497       .  S
Zr3089     O3090   2.430       .  S
Zr3089     O3097   2.383       .  S
Zr3089     O3099   2.394       .  S
Zr3089     O3100   2.393       .  S
O3090      H3154   0.989       .  S
O3091      C3111   1.282       .  A
O3092      C3113   1.293       .  A
O3093     Zr3103   2.594       .  S
O3094     Zr3102   2.417       .  S
O3095      C3112   1.289       .  A
O3096     Zr3104   2.391       .  S
O3096      C3111   1.279       .  A
O3097     Zr3102   2.391       .  S
O3098     Zr3104   2.375       .  S
O3098      H3133   0.964       .  S
O3099     Zr3102   2.392       .  S
O3099     Zr3119   2.398       .  S
O3099      H3136   0.966       .  S
O3100     Zr3103   2.385       .  S
O3100     Zr3119   2.409       .  S
Zr3101     O3126   2.438       .  S
Zr3101     O3120   2.394       .  S
Zr3101     O3128   2.396       .  S
Zr3101     O3116   2.447       .  S
Zr3101     O3107   2.402       .  S
Zr3101     O3108   2.380       .  S
Zr3101     O3109   2.366       .  S
Zr3101     O3110   2.393       .  S
Zr3102     O3121   2.438       .  S
Zr3102     O3114   2.436       .  S
Zr3102     O3115   2.418       .  S
Zr3102     O3108   2.397       .  S
Zr3102     O3109   2.397       .  S
Zr3103     O3105   2.433       .  S
Zr3103     O3127   2.435       .  S
Zr3103     O3129   2.522       .  S
Zr3103     O3107   2.421       .  S
Zr3103     O3110   2.398       .  S
Zr3104     O3130   2.435       .  S
Zr3104     O3131   2.439       .  S
Zr3104     O3106   2.437       .  S
O3105      H3142   0.990       .  S
O3106      H3137   0.990       .  S
O3106      H3151   0.990       .  S
O3108      H3134   0.966       .  S
O3109     Zr3119   2.374       .  S
O3110     Zr3119   2.363       .  S
O3110      H3135   0.965       .  S
C3111      C3177   1.436       .  S
O3115      C3117   1.278       .  A
O3116      C3117   1.293       .  A
O3118     Zr3119   2.440       .  S
O3118      H3147   0.990       .  S
Zr3119     O3122   2.439       .  S
Zr3119     O3123   2.437       .  S
Zr3119     O3124   2.437       .  S
O3120      C3125   1.276       .  A
O3121      H3138   0.990       .  S
O3121      H3153   0.990       .  S
O3122      H3139   0.990       .  S
O3123      H3143   0.990       .  S
O3123      H3152   0.990       .  S
O3124      C3125   1.287       .  A
C3125      C3191   1.458       .  S
O3126      H3145   0.990       .  S
O3126      H3149   0.990       .  S
O3127      H3141   0.990       .  S
O3128      C3132   1.279       .  A
O3129      C3132   1.305       .  A
O3130      H3140   0.990       .  S
Zr3155     O3156   2.438       .  S
Zr3155     O3157   2.386       .  S
Zr3155     O3158   2.512       .  S
Zr3155     O3161   2.451       .  S
Zr3155     O3163   2.382       .  S
Zr3155     O3164   2.395       .  S
Zr3155     O3165   2.391       .  S
Zr3155     O3166   2.400       .  S
O3156      H3212   0.988       .  S
O3156      H3220   0.990       .  S
O3157      C3177   1.278       .  A
O3158      C3179   1.306       .  A
O3159     Zr3169   2.575       .  S
O3159      C3178   1.317       .  A
O3160     Zr3168   2.405       .  S
O3160      C3179   1.274       .  A
O3161      C3178   1.288       .  A
O3162     Zr3170   2.405       .  S
O3162      C3177   1.281       .  A
O3163     Zr3168   2.398       .  S
O3163     Zr3170   2.379       .  S
O3164     Zr3169   2.365       .  S
O3164     Zr3170   2.368       .  S
O3164      H3199   0.964       .  S
O3165     Zr3168   2.404       .  S
O3165     Zr3185   2.393       .  S
O3165      H3202   0.966       .  S
O3166     Zr3169   2.401       .  S
O3166     Zr3185   2.388       .  S
Zr3167     O3192   2.435       .  S
Zr3167     O3186   2.439       .  S
Zr3167     O3194   2.451       .  S
Zr3167     O3182   2.496       .  S
Zr3167     O3173   2.407       .  S
Zr3167     O3174   2.390       .  S
Zr3167     O3175   2.373       .  S
Zr3167     O3176   2.395       .  S
Zr3168     O3187   2.438       .  S
Zr3168     O3180   2.435       .  S
Zr3168     O3181   2.427       .  S
Zr3168     O3174   2.390       .  S
Zr3168     O3175   2.398       .  S
Zr3169     O3171   2.434       .  S
Zr3169     O3193   2.436       .  S
Zr3169     O3195   2.556       .  S
Zr3169     O3173   2.402       .  S
Zr3169     O3176   2.387       .  S
Zr3170     O3196   2.435       .  S
Zr3170     O3197   2.438       .  S
Zr3170     O3172   2.437       .  S
Zr3170     O3173   2.388       .  S
Zr3170     O3174   2.389       .  S
O3171      H3208   0.990       .  S
O3172      H3203   0.990       .  S
O3172      H3217   0.990       .  S
O3174      H3200   0.965       .  S
O3175     Zr3185   2.386       .  S
O3176     Zr3185   2.377       .  S
O3176      H3201   0.965       .  S
O3180      H3216   0.990       .  S
O3181      C3183   1.277       .  A
O3182      C3183   1.300       .  A
O3184     Zr3185   2.439       .  S
O3184      H3213   0.990       .  S
Zr3185     O3188   2.435       .  S
Zr3185     O3189   2.439       .  S
Zr3185     O3190   2.394       .  S
O3186      C3191   1.289       .  A
O3187      H3204   0.990       .  S
O3187      H3219   0.990       .  S
O3188      H3205   0.990       .  S
O3189      H3209   0.990       .  S
O3189      H3218   0.990       .  S
O3190      C3191   1.277       .  A
O3192      H3211   0.990       .  S
O3192      H3215   0.990       .  S
O3193      H3207   0.990       .  S
O3193      H3214   0.990       .  S
O3194      C3198   1.289       .  A
O3195      C3198   1.313       .  A
O3196      H3206   0.990       .  S
O3197      H3210   0.990       .  S
Zr3221     O3222   2.417       .  S
Zr3221     O3223   2.405       .  S
Zr3221     O3224   2.416       .  S
Zr3221     O3227   2.494       .  S
Zr3221     O3229   2.387       .  S
Zr3221     O3230   2.381       .  S
Zr3221     O3231   2.442       .  S
Zr3221     O3232   2.285       .  S
O3222      H3278   0.986       .  S
O3222      H3286   0.984       .  S
O3223      C3243   1.279       .  A
O3224      C3245   1.266       .  A
O3225     Zr3235   2.359       .  S
O3225      C3244   1.258       .  A
O3226     Zr3234   2.453       .  S
O3226      C3245   1.279       .  A
O3227      C3244   1.288       .  A
O3228     Zr3236   2.523       .  S
O3228      C3243   1.299       .  A
O3229     Zr3234   2.446       .  S
O3229     Zr3236   2.366       .  S
O3230     Zr3235   2.392       .  S
O3230     Zr3236   2.382       .  S
O3230      H3265   0.962       .  S
O3231     Zr3234   2.467       .  S
O3231     Zr3251   2.383       .  S
O3231      H3268   0.960       .  S
O3232     Zr3235   2.320       .  S
O3232     Zr3251   2.356       .  S
Zr3233     O3258   2.454       .  S
Zr3233     O3252   2.580       .  S
Zr3233     O3260   2.374       .  S
Zr3233     O3248   2.297       .  S
Zr3233     O3239   2.447       .  S
Zr3233     O3240   2.471       .  S
Zr3233     O3241   2.382       .  S
Zr3233     O3242   2.355       .  S
Zr3234     O3253   2.439       .  S
Zr3234     O3246   2.436       .  S
Zr3234     O3247   2.546       .  S
Zr3234     O3240   2.387       .  S
Zr3234     O3241   2.410       .  S
Zr3235     O3237   2.435       .  S
Zr3235     O3259   2.446       .  S
Zr3235     O3261   2.369       .  S
Zr3235     O3239   2.337       .  S
Zr3235     O3242   2.416       .  S
Zr3236     O3262   2.434       .  S
Zr3236     O3263   2.437       .  S
Zr3236     O3238   2.441       .  S
Zr3236     O3239   2.455       .  S
Zr3236     O3240   2.431       .  S
O3237      H3274   0.990       .  S
O3238      H3269   0.990       .  S
O3238      H3283   0.990       .  S
O3240      H3266   0.965       .  S
O3241     Zr3251   2.365       .  S
O3242     Zr3251   2.414       .  S
O3242      H3267   0.962       .  S
C3243      C3830   1.512       .  S
C3244      C3981   1.465       .  S
C3245      C3687   1.477       .  S
O3246      H3282   0.990       .  S
O3247      C3249   1.299       .  A
O3248      C3249   1.244       .  A
C3249      C3528   1.457       .  S
O3250     Zr3251   2.426       .  S
O3250      H3279   0.990       .  S
Zr3251     O3254   2.439       .  S
Zr3251     O3255   2.437       .  S
Zr3251     O3256   2.406       .  S
O3252      C3257   1.316       .  A
O3253      H3270   0.990       .  S
O3253      H3285   0.990       .  S
O3254      H3271   0.990       .  S
O3255      H3275   0.990       .  S
O3255      H3284   0.989       .  S
O3256      C3257   1.276       .  A
C3257      C3575   1.531       .  S
O3258      H3277   0.990       .  S
O3258      H3281   0.989       .  S
O3259      H3273   0.989       .  S
O3259      H3280   0.989       .  S
O3260      C3264   1.267       .  A
O3261      C3264   1.260       .  A
O3262      H3272   0.990       .  S
O3263      H3276   0.990       .  S
C3264      C3631   1.434       .  S
Zr3287     O3288   2.414       .  S
Zr3287     O3289   2.445       .  S
Zr3287     O3290   2.424       .  S
Zr3287     O3293   2.540       .  S
Zr3287     O3295   2.403       .  S
Zr3287     O3296   2.363       .  S
Zr3287     O3297   2.456       .  S
Zr3287     O3298   2.323       .  S
O3288      H3344   0.985       .  S
O3288      H3352   0.984       .  S
O3289      C3309   1.286       .  A
O3290      C3311   1.264       .  A
O3291     Zr3301   2.404       .  S
O3291      C3310   1.276       .  A
O3292     Zr3300   2.458       .  S
O3292      C3311   1.275       .  A
O3293      C3310   1.308       .  A
O3294     Zr3302   2.543       .  S
O3294      C3309   1.304       .  A
O3295     Zr3300   2.446       .  S
O3295     Zr3302   2.346       .  S
O3296     Zr3301   2.370       .  S
O3296     Zr3302   2.369       .  S
O3296      H3331   0.964       .  S
O3297     Zr3300   2.464       .  S
O3297     Zr3317   2.380       .  S
O3297      H3334   0.958       .  S
O3298     Zr3301   2.351       .  S
O3298     Zr3317   2.370       .  S
Zr3299     O3324   2.455       .  S
Zr3299     O3318   2.593       .  S
Zr3299     O3326   2.376       .  S
Zr3299     O3314   2.310       .  S
Zr3299     O3305   2.443       .  S
Zr3299     O3306   2.463       .  S
Zr3299     O3307   2.365       .  S
Zr3299     O3308   2.357       .  S
Zr3300     O3319   2.439       .  S
Zr3300     O3312   2.435       .  S
Zr3300     O3313   2.565       .  S
Zr3300     O3306   2.387       .  S
Zr3300     O3307   2.393       .  S
Zr3301     O3303   2.424       .  S
Zr3301     O3325   2.444       .  S
Zr3301     O3327   2.380       .  S
Zr3301     O3305   2.354       .  S
Zr3301     O3308   2.433       .  S
Zr3302     O3328   2.435       .  S
Zr3302     O3329   2.436       .  S
Zr3302     O3304   2.438       .  S
Zr3302     O3305   2.438       .  S
Zr3302     O3306   2.448       .  S
O3303      H3340   0.990       .  S
O3304      H3335   0.990       .  S
O3304      H3349   0.990       .  S
O3306      H3332   0.965       .  S
O3307     Zr3317   2.370       .  S
O3308     Zr3317   2.398       .  S
O3308      H3333   0.961       .  S
C3309      C3802   1.533       .  S
C3310      C3925   1.508       .  S
C3311      C3662   1.471       .  S
O3312      H3348   0.990       .  S
O3313      C3315   1.304       .  A
O3314      C3315   1.250       .  A
C3315      C3574   1.477       .  S
O3316     Zr3317   2.439       .  S
O3316      H3345   0.990       .  S
Zr3317     O3320   2.436       .  S
Zr3317     O3321   2.440       .  S
Zr3317     O3322   2.424       .  S
O3318      C3323   1.318       .  A
O3319      H3336   0.990       .  S
O3319      H3351   0.990       .  S
O3320      H3337   0.990       .  S
O3321      H3341   0.990       .  S
O3321      H3350   0.990       .  S
O3322      C3323   1.277       .  A
C3323      C3513   1.542       .  S
O3324      H3343   0.991       .  S
O3324      H3347   0.988       .  S
O3325      H3339   0.990       .  S
O3325      H3346   0.990   1_545  S
O3326      C3330   1.271       .  A
O3327      C3330   1.263       .  A
O3328      H3338   0.990       .  S
O3329      H3342   0.990       .  S
C3330      C3634   1.432       .  S
Zr3353     O3355   2.431       .  S
Zr3353     O3356   2.430       .  S
Zr3353     O3359   2.496   1_556  S
Zr3353     O3361   2.375       .  S
Zr3353     O3362   2.376       .  S
Zr3353     O3363   2.425       .  S
Zr3353     O3364   2.297       .  S
O3354      H3410   0.984       .  S
O3354      H3418   0.988       .  S
O3355      C3375   1.283       .  A
O3356      C3377   1.279       .  A
O3357     Zr3367   2.337   1_554  S
O3357      C3376   1.267       .  A
O3358     Zr3366   2.419       .  S
O3358      C3377   1.279       .  A
O3359      C3376   1.303       .  A
O3360     Zr3368   2.567       .  S
O3360      C3375   1.307       .  A
O3361     Zr3366   2.425       .  S
O3361     Zr3368   2.360       .  S
O3362     Zr3367   2.394       .  S
O3362     Zr3368   2.360       .  S
O3362      H3397   0.965       .  S
O3363     Zr3366   2.442       .  S
O3363     Zr3383   2.379       .  S
O3363      H3400   0.964       .  S
O3364     Zr3367   2.348       .  S
O3364     Zr3383   2.335       .  S
Zr3365     O3390   2.449       .  S
Zr3365     O3384   2.617       .  S
Zr3365     O3392   2.383       .  S
Zr3365     O3380   2.323       .  S
Zr3365     O3371   2.457       .  S
Zr3365     O3372   2.476       .  S
Zr3365     O3373   2.376       .  S
Zr3365     O3374   2.353       .  S
Zr3366     O3385   2.441       .  S
Zr3366     O3378   2.435       .  S
Zr3366     O3379   2.505       .  S
Zr3366     O3372   2.397       .  S
Zr3366     O3373   2.404       .  S
Zr3367     O3369   2.438       .  S
Zr3367     O3391   2.440       .  S
Zr3367     O3393   2.390       .  S
Zr3367     O3371   2.342       .  S
Zr3367     O3374   2.402       .  S
Zr3368     O3394   2.435       .  S
Zr3368     O3395   2.436       .  S
Zr3368     O3370   2.438       .  S
Zr3368     O3371   2.456       .  S
Zr3368     O3372   2.454       .  S
O3369      H3406   0.989       .  S
O3370      H3401   0.990       .  S
O3370      H3415   0.990       .  S
O3372      H3398   0.966       .  S
O3373     Zr3383   2.373       .  S
O3374     Zr3383   2.410       .  S
O3374      H3399   0.956       .  S
C3375      C3760   1.566       .  S
C3377      C3704   1.467       .  S
O3378      H3414   0.990       .  S
O3379      C3381   1.286       .  A
O3380      C3381   1.243       .  A
C3381      C3508   1.452       .  S
O3382      H3411   0.990       .  S
Zr3383     O3388   2.387   1_556  S
O3384      C3389   1.325       .  A
O3385      H3402   0.990       .  S
O3385      H3417   0.990       .  S
O3386      H3403   0.990       .  S
O3387      H3407   0.990       .  S
O3387      H3416   0.989       .  S
O3388      C3389   1.270   1_554  A
O3390      H3409   0.991       .  S
O3390      H3413   0.988       .  S
O3391      H3405   0.990       .  S
O3391      H3412   0.990       .  S
O3392      C3396   1.265       .  A
O3393      C3396   1.264       .  A
O3394      H3404   0.990       .  S
O3395      H3408   0.990       .  S
C3396      C3617   1.460       .  S
Zr3419     O3420   2.409       .  S
Zr3419     O3421   2.415       .  S
Zr3419     O3422   2.442       .  S
Zr3419     O3425   2.477       .  S
Zr3419     O3427   2.387       .  S
Zr3419     O3428   2.384       .  S
Zr3419     O3429   2.445       .  S
Zr3419     O3430   2.389       .  S
O3420      H3476   0.990       .  S
O3420      H3484   0.990       .  S
O3421      C3441   1.281       .  A
O3422      C3443   1.274       .  A
O3423     Zr3433   2.375       .  S
O3423      C3442   1.256       .  A
O3424     Zr3432   2.399       .  S
O3424      C3443   1.264       .  A
O3425      C3442   1.272       .  A
O3426     Zr3434   2.559       .  S
O3427     Zr3432   2.446       .  S
O3428     Zr3433   2.415       .  S
O3428      H3463   0.965       .  S
O3429     Zr3432   2.452       .  S
O3429     Zr3449   2.391       .  S
O3429      H3466   0.958       .  S
O3430     Zr3433   2.367       .  S
O3430     Zr3449   2.349       .  S
Zr3431     O3450   2.539       .  S
Zr3431     O3458   2.426       .  S
Zr3431     O3437   2.389       .  S
Zr3431     O3439   2.359       .  S
Zr3431     O3440   2.332       .  S
Zr3432     O3451   2.438       .  S
Zr3432     O3439   2.382       .  S
Zr3433     O3435   2.428       .  S
Zr3433     O3457   2.440       .  S
Zr3433     O3459   2.381       .  S
Zr3433     O3437   2.340       .  S
Zr3433     O3440   2.379       .  S
Zr3434     O3460   2.435       .  S
Zr3434     O3461   2.435       .  S
Zr3434     O3436   2.438       .  S
Zr3434     O3438   2.466       .  S
O3435      H3472   0.990       .  S
O3436      H3467   0.990       .  S
O3436      H3481   0.990       .  S
O3438      H3464   0.965       .  S
O3439     Zr3449   2.377       .  S
O3440     Zr3449   2.417       .  S
O3440      H3465   0.966       .  S
C3441      C3732   1.532   1_556  S
C3442      C3897   1.453       .  S
C3443      C3648   1.447       .  S
O3444      H3480   0.990       .  S
O3445      C3447   1.290       .  A
O3446      C3447   1.265       .  A
C3447      C3594   1.449       .  S
O3448     Zr3449   2.440       .  S
O3448      H3477   0.990       .  S
Zr3449     O3452   2.436       .  S
Zr3449     O3453   2.442       .  S
Zr3449     O3454   2.401       .  S
O3450      C3455   1.306       .  A
O3451      H3468   0.990       .  S
O3451      H3483   0.990       .  S
O3452      H3469   0.990       .  S
O3453      H3473   0.990       .  S
O3453      H3482   0.989       .  S
O3454      C3455   1.274       .  A
C3455      C3509   1.508       .  S
O3456      H3475   0.988       .  S
O3456      H3479   0.990       .  S
O3457      H3471   0.987       .  S
O3457      H3478   0.986       .  S
O3458      C3462   1.279       .  A
O3459      C3462   1.272       .  A
O3460      H3470   0.990       .  S
O3461      H3474   0.990       .  S
C3462      C3620   1.476       .  S
Zr3485     O3486   2.445       .  S
Zr3485     O3487   2.385       .  S
Zr3485     O3488   2.421       .  S
Zr3485     O3491   2.475       .  S
Zr3485     O3493   2.392       .  S
Zr3485     O3494   2.359       .  S
Zr3485     O3495   2.421       .  S
Zr3485     O3496   2.390       .  S
O3486      H3542   0.991       .  S
O3486      H3550   0.990       .  S
O3487      C3507   1.274       .  A
O3488      C3509   1.279       .  A
O3489     Zr3499   2.381       .  S
O3489      C3508   1.264       .  A
O3490     Zr3498   2.546       .  S
O3490      C3509   1.310       .  A
O3491      C3508   1.296       .  A
O3492     Zr3500   2.475       .  S
O3492      C3507   1.288       .  A
O3493     Zr3498   2.412       .  S
O3493     Zr3500   2.373       .  S
O3494     Zr3499   2.408       .  S
O3494     Zr3500   2.367       .  S
O3494      H3529   0.966       .  S
O3495     Zr3498   2.425       .  S
O3495     Zr3515   2.380       .  S
O3495      H3532   0.964       .  S
O3496     Zr3499   2.403       .  S
O3496     Zr3515   2.411       .  S
Zr3497     O3522   2.437       .  S
Zr3497     O3516   2.379       .  S
Zr3497     O3524   2.492       .  S
Zr3497     O3512   2.462       .  S
Zr3497     O3503   2.398       .  S
Zr3497     O3504   2.419       .  S
Zr3497     O3505   2.387       .  S
Zr3497     O3506   2.363       .  S
Zr3498     O3517   2.435       .  S
Zr3498     O3510   2.434       .  S
Zr3498     O3511   2.574       .  S
Zr3498     O3504   2.412       .  S
Zr3498     O3505   2.395       .  S
Zr3499     O3501   2.438       .  S
Zr3499     O3523   2.436       .  S
Zr3499     O3525   2.388       .  S
Zr3499     O3503   2.401       .  S
Zr3499     O3506   2.400       .  S
Zr3500     O3526   2.435       .  S
Zr3500     O3527   2.435       .  S
Zr3500     O3502   2.436       .  S
Zr3500     O3503   2.427       .  S
Zr3500     O3504   2.400       .  S
O3501      H3538   0.990       .  S
O3502      H3533   0.990       .  S
O3502      H3547   0.990       .  S
O3504      H3530   0.965       .  S
O3505     Zr3515   2.386       .  S
O3506     Zr3515   2.367       .  S
O3506      H3531   0.965       .  S
C3507      C3587   1.482       .  S
O3510      H3546   0.990       .  S
O3511      C3513   1.316       .  A
O3512      C3513   1.285       .  A
O3514     Zr3515   2.439       .  S
O3514      H3543   0.990       .  S
Zr3515     O3518   2.437       .  S
Zr3515     O3519   2.441       .  S
Zr3515     O3520   2.437       .  S
O3516      C3521   1.275       .  A
O3517      H3534   0.990       .  S
O3517      H3549   0.990       .  S
O3518      H3535   0.990       .  S
O3519      H3539   0.990       .  S
O3519      H3548   0.990       .  S
O3520      C3521   1.281       .  A
C3521      C3573   1.459       .  S
O3522      H3541   0.991       .  S
O3522      H3545   0.990       .  S
O3523      H3537   0.990       .  S
O3523      H3544   0.990       .  S
O3524      C3528   1.302       .  A
O3525      C3528   1.267       .  A
O3526      H3536   0.990       .  S
O3527      H3540   0.990       .  S
Zr3551     O3552   2.438       .  S
Zr3551     O3553   2.386       .  S
Zr3551     O3554   2.453       .  S
Zr3551     O3557   2.490       .  S
Zr3551     O3559   2.392       .  S
Zr3551     O3560   2.368       .  S
Zr3551     O3561   2.422       .  S
Zr3551     O3562   2.391       .  S
O3552      H3608   0.990       .  S
O3552      H3616   0.990       .  S
O3553      C3573   1.277       .  A
O3554      C3575   1.284       .  A
O3555     Zr3565   2.410       .  S
O3555      C3574   1.272       .  A
O3556     Zr3564   2.558       .  S
O3556      C3575   1.313       .  A
O3557      C3574   1.301       .  A
O3558     Zr3566   2.429       .  S
O3558      C3573   1.279       .  A
O3559     Zr3564   2.409       .  S
O3559     Zr3566   2.376       .  S
O3560     Zr3565   2.400       .  S
O3560     Zr3566   2.387       .  S
O3560      H3595   0.966       .  S
O3561     Zr3564   2.424       .  S
O3561     Zr3581   2.403       .  S
O3561      H3598   0.966       .  S
O3562     Zr3565   2.404       .  S
O3562     Zr3581   2.415       .  S
Zr3563     O3588   2.420       .  S
Zr3563     O3590   2.416       .  S
Zr3563     O3578   2.422       .  S
Zr3563     O3569   2.385       .  S
Zr3563     O3570   2.403       .  S
Zr3563     O3571   2.372       .  S
Zr3563     O3572   2.366       .  S
Zr3564     O3583   2.434       .  S
Zr3564     O3576   2.435       .  S
Zr3564     O3577   2.606       .  S
Zr3564     O3570   2.391       .  S
Zr3564     O3571   2.382       .  S
Zr3565     O3567   2.435       .  S
Zr3565     O3589   2.438       .  S
Zr3565     O3591   2.405       .  S
Zr3565     O3569   2.386       .  S
Zr3565     O3572   2.401       .  S
Zr3566     O3592   2.436       .  S
Zr3566     O3593   2.439       .  S
Zr3566     O3568   2.438       .  S
Zr3566     O3569   2.399       .  S
Zr3566     O3570   2.400       .  S
O3567      H3604   0.990       .  S
O3568      H3599   0.990       .  S
O3568      H3613   0.990       .  S
O3570      H3596   0.966       .  S
O3571     Zr3581   2.374       .  S
O3572     Zr3581   2.386       .  S
O3572      H3597   0.966       .  S
O3576      H3612   0.990       .  S
O3577      C3579   1.325       .  A
O3578      C3579   1.280       .  A
O3580     Zr3581   2.440       .  S
O3580      H3609   0.990       .  S
Zr3581     O3584   2.437       .  S
O3582      C3587   1.284       .  A
O3583      H3600   0.990       .  S
O3583      H3615   0.990       .  S
O3585      H3605   0.990   1_554  S
O3585      H3614   0.990       .  S
O3586      C3587   1.286       .  A
O3588      H3607   0.990       .  S
O3588      H3611   0.988       .  S
O3589      H3603   0.990       .  S
O3589      H3610   0.990       .  S
O3590      C3594   1.287       .  A
O3591      C3594   1.274       .  A
O3592      H3602   0.990       .  S
O3593      H3606   0.990       .  S
C3617      C3618   1.422       .  A
C3617      C3622   1.419       .  A
C3618      C3619   1.397       .  A
C3618      C3623   1.444       .  S
C3619      C3620   1.394       .  A
C3620      C3621   1.400       .  A
C3621      C3622   1.403       .  A
C3621      C3624   1.445       .  S
C3622      C3625   1.450       .  S
C3623      N3630   1.155   1_556  T
C3624      N3629   1.157       .  T
C3625      N3627   1.157       .  T
C3626      N3628   1.157       .  T
C3631      C3632   1.414       .  A
C3631      C3636   1.398       .  A
C3632      C3633   1.392       .  A
C3632      C3637   1.450       .  S
C3633      C3634   1.397       .  A
C3633      C3640   1.454       .  S
C3634      C3635   1.413       .  A
C3635      C3636   1.390       .  A
C3635      C3638   1.449       .  S
C3636      C3639   1.455       .  S
C3637      N3644   1.157       .  T
C3638      N3643   1.156       .  T
C3639      N3641   1.157       .  T
C3640      N3642   1.157       .  T
C3645      C3646   1.413       .  A
C3645      C3650   1.409       .  A
C3646      C3647   1.395       .  A
C3646      C3651   1.452       .  S
C3647      C3648   1.399       .  A
C3647      C3654   1.449       .  S
C3648      C3649   1.396       .  A
C3649      C3650   1.396       .  A
C3649      C3652   1.445       .  S
C3650      C3653   1.448       .  S
C3651      N3658   1.157       .  T
C3653      N3655   1.156   1_455  T
C3654      N3656   1.157       .  T
C3659      C3660   1.421       .  A
C3659      C3664   1.417       .  A
C3660      C3661   1.402       .  A
C3660      C3665   1.455       .  S
C3661      C3662   1.400       .  A
C3661      C3668   1.449       .  S
C3662      C3663   1.410       .  A
C3663      C3664   1.411       .  A
C3663      C3666   1.447       .  S
C3664      C3667   1.450   1_455  S
C3665      N3672   1.157       .  T
C3666      N3671   1.156       .  T
C3667      N3669   1.158       .  T
C3668      N3670   1.157       .  T
C3673      C3674   1.392       .  A
C3673      C3678   1.396       .  A
C3674      C3675   1.394       .  A
C3674      C3679   1.452       .  S
C3675      C3676   1.419       .  A
C3675      C3682   1.446       .  S
C3676      C3677   1.429       .  A
C3677      C3678   1.407       .  A
C3677      C3680   1.447       .  S
C3678      C3681   1.449   1_655  S
C3679      N3686   1.157       .  T
C3680      N3685   1.157   1_655  T
C3681      N3683   1.157       .  T
C3682      N3684   1.155       .  T
C3687      C3688   1.401       .  A
C3687      C3692   1.413       .  A
C3688      C3689   1.402       .  A
C3688      C3693   1.452       .  S
C3689      C3690   1.423       .  A
C3689      C3696   1.453       .  S
C3690      C3691   1.421       .  A
C3691      C3692   1.412       .  A
C3691      C3694   1.449       .  S
C3692      C3695   1.452       .  S
C3693      N3700   1.157       .  T
C3694      N3699   1.157       .  T
C3695      N3697   1.157       .  T
C3696      N3698   1.158       .  T
C3701      C3702   1.428       .  A
C3701      C3706   1.420       .  A
C3702      C3707   1.448       .  S
C3703      C3704   1.401       .  A
C3703      C3710   1.450       .  S
C3704      C3705   1.399       .  A
C3705      C3708   1.450       .  S
C3706      C3709   1.450       .  S
C3707      N3714   1.157       .  T
C3708      N3713   1.157   1_556  T
C3709      N3711   1.157       .  T
C3710      N3712   1.157       .  T
C3715      C3716   1.385       .  A
C3715      C3720   1.398       .  A
C3716      C3717   1.393       .  A
C3716      C3721   1.445       .  S
C3717      C3718   1.425       .  A
C3717      C3724   1.436       .  S
C3718      C3719   1.424       .  A
C3719      C3720   1.405       .  A
C3719      C3722   1.449       .  S
C3720      C3723   1.445       .  S
C3721      N3728   1.157       .  T
C3722      N3727   1.157       .  T
C3723      N3725   1.157       .  T
C3724      N3726   1.152       .  T
C3729      C3730   1.420   1_554  A
C3730      C3731   1.428       .  A
C3730      C3735   1.440       .  S
C3731      C3732   1.411   1_556  A
C3731      C3738   1.447       .  S
C3733      C3734   1.437       .  A
C3733      C3736   1.442       .  S
C3734      C3737   1.446   1_455  S
C3735      N3742   1.154       .  T
C3736      N3741   1.156       .  T
C3737      N3739   1.157       .  T
C3738      N3740   1.157       .  T
C3743      C3744   1.380       .  A
C3743      C3748   1.419       .  A
C3744      C3745   1.409       .  A
C3744      C3749   1.452   1_655  S
C3745      C3746   1.445       .  A
C3745      C3752   1.443       .  S
C3746      C3747   1.417       .  A
C3747      C3748   1.425       .  A
C3747      C3750   1.447       .  S
C3748      C3751   1.441       .  S
C3749      N3756   1.157       .  T
C3750      N3755   1.157       .  T
C3751      N3753   1.157       .  T
C3752      N3754   1.156       .  T
C3757      C3758   1.422       .  A
C3757      C3762   1.432       .  A
C3758      C3759   1.407       .  A
C3758      C3763   1.444       .  S
C3759      C3760   1.423       .  A
C3759      C3766   1.448       .  S
C3760      C3761   1.435       .  A
C3761      C3762   1.459       .  A
C3761      C3764   1.445       .  S
C3762      C3765   1.446       .  S
C3763      N3770   1.155       .  T
C3764      N3769   1.157       .  T
C3765      N3767   1.157       .  T
C3766      N3768   1.157       .  T
C3771      C3772   1.390       .  A
C3771      C3776   1.420       .  A
C3772      C3773   1.392       .  A
C3773      C3774   1.439       .  A
C3773      C3780   1.451       .  S
C3774      C3775   1.404       .  A
C3775      C3776   1.408       .  A
C3775      C3778   1.450       .  S
C3776      C3779   1.448       .  S
C3777      N3784   1.155       .  T
C3778      N3783   1.157       .  T
C3779      N3781   1.156       .  T
C3780      N3782   1.156       .  T
C3785      C3786   1.408       .  A
C3785      C3790   1.405       .  A
C3786      C3787   1.391       .  A
C3786      C3791   1.452       .  S
C3787      C3788   1.400       .  A
C3788      C3789   1.407       .  A
C3789      C3790   1.397       .  A
C3789      C3792   1.450       .  S
C3790      C3793   1.452       .  S
C3792      N3797   1.157       .  T
C3793      N3795   1.157       .  T
C3794      N3796   1.157       .  T
C3799      C3800   1.418   1_565  A
C3799      C3804   1.421       .  A
C3800      C3801   1.437       .  A
C3800      C3805   1.447   1_455  S
C3801      C3802   1.420       .  A
C3801      C3808   1.444       .  S
C3802      C3803   1.415   1_545  A
C3803      C3804   1.429       .  A
C3803      C3806   1.450       .  S
C3804      C3807   1.444       .  S
C3805      N3812   1.157       .  T
C3806      N3811   1.157       .  T
C3807      N3809   1.156       .  T
C3808      N3810   1.156       .  T
C3813      C3814   1.412       .  A
C3813      C3818   1.413       .  A
C3814      C3815   1.404   1_565  A
C3814      C3819   1.452   1_565  S
C3815      C3816   1.401   1_545  A
C3815      C3822   1.444       .  S
C3816      C3817   1.404       .  A
C3817      C3818   1.409       .  A
C3817      C3820   1.447       .  S
C3818      C3821   1.443       .  S
C3819      N3826   1.158       .  T
C3820      N3825   1.157       .  T
C3821      N3823   1.155       .  T
C3822      N3824   1.156       .  T
C3827      C3828   1.425       .  A
C3827      C3832   1.424       .  A
C3828      C3829   1.438   1_565  A
C3828      C3833   1.446       .  S
C3829      C3830   1.418       .  A
C3829      C3836   1.447       .  S
C3830      C3831   1.408   1_545  A
C3831      C3832   1.413       .  A
C3831      C3834   1.456       .  S
C3832      C3835   1.438       .  S
C3833      N3840   1.157   1_565  T
C3834      N3839   1.157       .  T
C3835      N3837   1.151       .  T
C3836      N3838   1.157       .  T
C3841      C3842   1.388       .  A
C3841      C3846   1.408       .  A
C3842      C3843   1.407       .  A
C3842      C3847   1.449       .  S
C3843      C3844   1.435       .  A
C3843      C3850   1.450       .  S
C3844      C3845   1.427       .  A
C3845      C3846   1.419       .  A
C3845      C3848   1.448       .  S
C3846      C3849   1.443       .  S
C3847      N3854   1.157       .  T
C3848      N3853   1.157       .  T
C3849      N3851   1.157       .  T
C3850      N3852   1.157   1_565  T
C3855      C3856   1.400       .  A
C3855      C3860   1.396       .  A
C3856      C3857   1.404       .  A
C3856      C3861   1.448       .  S
C3857      C3858   1.420       .  A
C3857      C3864   1.451       .  S
C3858      C3859   1.423       .  A
C3859      C3860   1.404       .  A
C3859      C3862   1.442       .  S
C3860      C3863   1.448       .  S
C3861      N3868   1.157   1_565  T
C3862      N3867   1.156       .  T
C3863      N3865   1.157       .  T
C3864      N3866   1.157       .  T
C3869      C3870   1.420       .  A
C3869      C3874   1.421       .  A
C3870      C3871   1.442       .  A
C3870      C3875   1.448       .  S
C3871      C3872   1.426       .  A
C3871      C3878   1.446   1_455  S
C3872      C3873   1.416       .  A
C3873      C3874   1.432       .  A
C3873      C3876   1.446       .  S
C3874      C3877   1.446       .  S
C3875      N3882   1.157       .  T
C3876      N3881   1.157       .  T
C3877      N3879   1.156       .  T
C3878      N3880   1.157       .  T
C3883      C3884   1.395       .  A
C3883      C3888   1.402       .  A
C3884      C3885   1.400       .  A
C3884      C3889   1.447       .  S
C3885      C3886   1.417       .  A
C3885      C3892   1.452       .  S
C3886      C3887   1.421       .  A
C3887      C3888   1.413       .  A
C3887      C3890   1.447       .  S
C3888      C3891   1.446       .  S
C3889      N3896   1.157       .  T
C3890      N3895   1.157       .  T
C3891      N3893   1.157       .  T
C3892      N3894   1.157       .  T
C3897      C3898   1.422       .  A
C3897      C3902   1.408       .  A
C3898      C3899   1.408       .  A
C3898      C3903   1.452       .  S
C3899      C3900   1.399       .  A
C3899      C3906   1.446       .  S
C3900      C3901   1.403       .  A
C3901      C3902   1.408       .  A
C3901      C3904   1.448       .  S
C3902      C3905   1.445       .  S
C3903      N3910   1.157       .  T
C3904      N3909   1.157       .  T
C3905      N3907   1.157       .  T
C3906      N3908   1.157       .  T
C3911      C3912   1.421       .  A
C3911      C3916   1.410       .  A
C3912      C3913   1.443   1_565  A
C3912      C3917   1.446       .  S
C3913      C3914   1.425       .  A
C3913      C3920   1.445       .  S
C3914      C3915   1.430   1_545  A
C3915      C3916   1.424       .  A
C3915      C3918   1.447   1_455  S
C3916      C3919   1.448       .  S
C3917      N3924   1.157       .  T
C3918      N3923   1.155       .  T
C3919      N3921   1.156       .  T
C3920      N3922   1.157       .  T
C3925      C3926   1.422       .  A
C3925      C3930   1.439       .  A
C3926      C3927   1.420       .  A
C3926      C3931   1.447       .  S
C3927      C3928   1.409       .  A
C3927      C3934   1.441       .  S
C3928      C3929   1.387       .  A
C3929      C3930   1.410       .  A
C3929      C3932   1.449       .  S
C3930      C3933   1.445       .  S
C3931      N3938   1.156       .  T
C3932      N3937   1.157       .  T
C3933      N3935   1.157   1_545  T
C3934      N3936   1.155       .  T
C3939      C3940   1.415       .  A
C3939      C3944   1.391       .  A
C3940      C3941   1.428       .  A
C3940      C3945   1.445       .  S
C3941      C3942   1.432       .  A
C3941      C3948   1.442       .  S
C3942      C3943   1.389       .  A
C3943      C3944   1.370       .  A
C3943      C3946   1.444       .  S
C3944      C3947   1.448       .  S
C3945      N3952   1.157       .  T
C3946      N3951   1.158       .  T
C3947      N3949   1.157       .  T
C3948      N3950   1.157       .  T
C3953      C3954   1.420       .  A
C3953      C3958   1.417       .  A
C3954      C3955   1.394       .  A
C3954      C3959   1.451       .  S
C3955      C3956   1.395       .  A
C3955      C3962   1.447       .  S
C3956      C3957   1.399       .  A
C3957      C3958   1.396       .  A
C3957      C3960   1.448       .  S
C3958      C3961   1.451       .  S
C3959      N3966   1.157       .  T
C3960      N3965   1.157       .  T
C3961      N3963   1.157       .  T
C3962      N3964   1.157       .  T
C3967      C3968   1.421       .  A
C3967      C3972   1.426       .  A
C3968      C3969   1.403       .  A
C3968      C3973   1.454       .  S
C3969      C3970   1.398       .  A
C3969      C3976   1.450       .  S
C3970      C3971   1.406       .  A
C3971      C3972   1.415       .  A
C3971      C3974   1.447       .  S
C3972      C3975   1.450       .  S
C3973      N3980   1.158       .  T
C3974      N3979   1.157       .  T
C3975      N3977   1.157       .  T
C3976      N3978   1.157       .  T
C3981      C3982   1.412       .  A
C3981      C3986   1.416       .  A
C3982      C3983   1.398       .  A
C3982      C3987   1.445   1_545  S
C3983      C3984   1.396       .  A
C3983      C3990   1.453   1_545  S
C3984      C3985   1.408       .  A
C3985      C3986   1.416       .  A
C3985      C3988   1.446       .  S
C3986      C3989   1.445       .  S
C3987      N3994   1.156       .  T
C3988      N3993   1.157       .  T
C3989      N3991   1.157       .  T
C3990      N3992   1.157       .  T
C3995      C3996   1.427       .  A
C3995      C4000   1.426       .  A
C3996      C3997   1.414   1_565  A
C3996      C4001   1.443   1_565  S
C3997      C3998   1.405       .  A
C3997      C4004   1.445       .  S
C3998      C3999   1.421   1_545  A
C3999      C4000   1.444       .  A
C4001      N4008   1.152       .  T
C4002      N4007   1.157       .  T
C4003      N4005   1.157       .  T
C4004      N4006   1.153       .  T
C4009      C4010   1.421       .  A
C4009      C4014   1.424       .  A
C4010      C4011   1.442       .  A
C4010      C4015   1.447       .  S
C4011      C4012   1.426       .  A
C4011      C4018   1.448       .  S
C4012      C4013   1.420       .  A
C4013      C4014   1.438       .  A
C4013      C4016   1.447       .  S
C4014      C4017   1.448       .  S
C4015      N4022   1.157       .  T
C4016      N4021   1.157       .  T
C4017      N4019   1.157       .  T
C4018      N4020   1.157       .  T
C4023      C4028   1.423       .  A
C4024      C4025   1.410       .  A
C4024      C4029   1.449       .  S
C4025      C4026   1.403       .  A
C4025      C4032   1.451       .  S
C4026      C4027   1.399       .  A
C4028      C4031   1.453       .  S
C4029      N4036   1.157       .  T
C4030      N4035   1.157       .  T
C4031      N4033   1.158       .  T
C4032      N4034   1.157       .  T
C4037      C4038   1.416       .  A
C4037      C4042   1.411       .  A
C4038      C4039   1.366       .  A
C4038      C4043   1.432       .  S
C4039      C4040   1.387       .  A
C4040      C4041   1.421       .  A
C4041      C4042   1.417       .  A
C4041      C4044   1.448       .  S
C4042      C4045   1.448       .  S
C4043      N4050   1.157       .  T
C4044      N4049   1.157       .  T
C4045      N4047   1.157       .  T
C4046      N4048   1.156   1_554  T
C4051      C4052   1.422       .  A
C4051      C4056   1.422       .  A
C4052      C4053   1.399       .  A
C4052      C4057   1.447       .  S
C4053      C4054   1.393       .  A
C4053      C4060   1.445       .  S
C4054      C4055   1.396       .  A
C4055      C4056   1.396       .  A
C4055      C4058   1.447       .  S
C4056      C4059   1.451       .  S
C4057      N4064   1.156       .  T
C4058      N4063   1.157       .  T
C4059      N4061   1.158       .  T
C4060      N4062   1.157       .  T
