geometry optimzed in LAMMPS
_audit_creation_date              2020-11-30 
_audit_creation_method            'lammps2cif' 
_symmetry_space_group_name_H-M    'P1' 
_symmetry_Int_Tables_number       1 
_symmetry_cell_setting            triclinic 
loop_ 
_symmetry_equiv_pos_as_xyz 
  x,y,z 
_cell_length_a                    28.28027165 
_cell_length_b                    28.091221188524873 
_cell_length_c                    28.22453083215719 
_cell_angle_alpha                 90.42795736153303 
_cell_angle_beta                  89.7649674359955 
_cell_angle_gamma                 89.96901187592448 
loop_ 
_atom_site_label 
_atom_site_type_symbol 
_atom_site_fract_x 
_atom_site_fract_y 
_atom_site_fract_z 
_atom_site_charge 
C1          C  0.57054784  0.92238633  0.99977955    -0.01500
C2          C  0.36954805  0.92427591  0.99081606    -0.01500
C3          C  0.37157528  0.13735140  0.50227946    -0.01500
C4          C  0.57671019  0.13748786  0.00502178    -0.01500
C5          C  0.86452608  0.42595266  0.00176654    -0.01500
C6          C  0.86479283  0.63118649  0.99753945    -0.01500
C7          C  0.07770817  0.63435807  0.99764375    -0.01500
C8          C  0.07536082  0.42967392  0.50938781    -0.01500
O9          O  0.31741511  0.88536510  0.29839123    -0.56800
C10         C  0.33662498  0.91272666  0.44851734     0.75800
O11         O  0.22857716  0.98270871  0.39484182    -0.58000
C12         C  0.28233854  0.89240834  0.27128099     0.75800
C13         C  0.19936960  0.83418257  0.38901579     0.78200
Cd14       Cd  0.26902658  0.90648467  0.37150397     1.37500
O15         O  0.34625465  0.88583720  0.41332486    -0.56800
O16         O  0.24281603  0.82439517  0.38447130    -0.55600
C17         C  0.25451306  0.00768114  0.36795205     0.78100
O18         O  0.18828869  0.87786930  0.39006790    -0.58000
O19         O  0.29681814  0.93315063  0.44729281    -0.56400
O20         O  0.24358583  0.90343124  0.29095974    -0.56400
O21         O  0.28211333  0.98543655  0.34023675    -0.55600
O22         O  0.11917737  0.68384453  0.29435825    -0.56800
C23         C  0.09010712  0.66108062  0.45132324     0.75800
O24         O  0.11968068  0.80602017  0.39246773    -0.58000
C25         C  0.10842311  0.72029905  0.27004714     0.75800
C26         C  0.99462639  0.73637070  0.36820505     0.78200
Cd27       Cd  0.09412151  0.72540244  0.37094453     1.37500
O28         O  0.08087306  0.64692334  0.40965232    -0.56800
O29         O  0.01685426  0.70277326  0.34834208    -0.55600
C30         C  0.16347799  0.79656508  0.38843605     0.78100
O31         O  0.01878041  0.76807421  0.38940336    -0.58000
O32         O  0.10785940  0.70243498  0.45353893    -0.56400
O33         O  0.09467555  0.75667892  0.29274535    -0.56400
O34         O  0.17490684  0.75355568  0.38003966    -0.55600
O35         O  0.35940735  0.90894903  0.07735342    -0.56800
C36         C  0.28469676  0.89153504  0.21925043     0.75800
O37         O  0.23776863  0.98116054  0.10635446    -0.58000
C38         C  0.34179699  0.90959189  0.03600754     0.75800
C39         C  0.20856217  0.83699255  0.10193930     0.78200
Cd40       Cd  0.28052828  0.90535985  0.11894441     1.37500
O41         O  0.32134912  0.88084496  0.19494781    -0.56800
O42         O  0.25088710  0.82431046  0.11010805    -0.55600
C43         C  0.26889708  0.00535611  0.12799027     0.78100
O44         O  0.20045648  0.88120525  0.09799729    -0.57200
O45         O  0.24849834  0.90434924  0.19664148    -0.56400
O46         O  0.29776967  0.90163476  0.03454210    -0.56400
O47         O  0.30369934  0.98313445  0.14484797    -0.55600
O48         O  0.11338214  0.68623889  0.19069613    -0.56800
C49         C  0.08951532  0.66911536  0.03862729     0.75800
O50         O  0.01869996  0.77610509  0.09752007    -0.58000
C51         C  0.10880678  0.72229487  0.21793598     0.75800
C52         C  0.17004255  0.80228776  0.10136918     0.78200
Cd53       Cd  0.09561724  0.73562080  0.11781403     1.37500
O54         O  0.11776509  0.66058520  0.07248721    -0.56800
O55         O  0.17816774  0.75844039  0.10695291    -0.55600
C56         C  0.99487359  0.75041890  0.12573262     0.78100
O57         O  0.12708699  0.81502258  0.09910553    -0.58000
O58         O  0.06823986  0.70867055  0.04107667    -0.56400
O59         O  0.10114534  0.76187639  0.19833625    -0.56400
O60         O  0.01807215  0.72335239  0.15263532    -0.55600
O61         O  0.11364588  0.38626420  0.30511356    -0.56800
C62         C  0.08496654  0.40135728  0.46310967     0.75800
O63         O  0.02036132  0.29373305  0.38822440    -0.58000
C64         C  0.11162651  0.34869926  0.27963227     0.75800
C65         C  0.16546651  0.26837345  0.40066165     0.78200
Cd66       Cd  0.09537368  0.33899194  0.38035771     1.37500
O67         O  0.12311545  0.40247438  0.43904775    -0.56800
O68         O  0.17595317  0.31177782  0.39493300    -0.55600
C69         C  0.99605240  0.32697485  0.36990295     0.78100
O70         O  0.12178900  0.25796835  0.40224094    -0.58000
O71         O  0.05500847  0.37110688  0.44916701    -0.56400
O72         O  0.10534102  0.31002351  0.30121289    -0.56400
O73         O  0.01821111  0.36300244  0.35473219    -0.55600
O74         O  0.32257380  0.17616658  0.30771822    -0.56800
C75         C  0.33856366  0.15167214  0.46123314     0.75800
O76         O  0.19275025  0.18776466  0.40332025    -0.58000
C77         C  0.28645124  0.17177296  0.28128757     0.75800
C78         C  0.25682985  0.05983204  0.37106869     0.78200
Cd79       Cd  0.27336601  0.16037124  0.38197840     1.37500
O80         O  0.34612208  0.18394920  0.43081172    -0.56800
O81         O  0.28963218  0.08179164  0.34988487    -0.55600
C82         C  0.20245220  0.23167103  0.40045541     0.78100
O83         O  0.22914597  0.08463288  0.39681372    -0.58000
O84         O  0.30037787  0.12893478  0.45584139    -0.56400
O85         O  0.24718292  0.16587636  0.30188201    -0.56400
O86         O  0.24534777  0.24241281  0.39320279    -0.55600
O87         O  0.11111644  0.38360522  0.20070961    -0.56800
C88         C  0.09456241  0.39629971  0.04718121     0.75800
O89         O  0.12754871  0.25010607  0.11180358    -0.58000
C90         C  0.11310853  0.34728914  0.22735717     0.75800
C91         C  0.99975534  0.31257567  0.13226603     0.78200
Cd92       Cd  0.10031013  0.33131035  0.12681568     1.37500
O93         O  0.12362549  0.40637866  0.07996584    -0.56800
O94         O  0.02149216  0.33887226  0.16144446    -0.55600
C95         C  0.17089316  0.26133880  0.11087624     0.78100
O96         O  0.02499183  0.28952556  0.10278681    -0.58000
O97         O  0.07604748  0.35540284  0.04953565    -0.56400
O98         O  0.11284980  0.30712082  0.20692877    -0.56400
O99         O  0.18103989  0.30512840  0.11355525    -0.55600
O100        O  0.32475727  0.17482106  0.20383501    -0.56800
C101        C  0.34103519  0.14966710  0.04654109     0.75800
O102        O  0.23729865  0.08188314  0.10955068    -0.58000
C103        C  0.28765126  0.17027292  0.22912919     0.75800
C104        C  0.20786738  0.22529965  0.11101993     0.78200
Cd105      Cd  0.27888658  0.15667719  0.12834250     1.37500
O106        O  0.35050114  0.18006872  0.07885093    -0.56800
O107        O  0.25097272  0.23694436  0.11448890    -0.55600
C108        C  0.26734771  0.05701179  0.13165434     0.78100
O109        O  0.19803536  0.18132688  0.11138895    -0.58000
O110        O  0.30290924  0.12696142  0.05218417    -0.56400
O111        O  0.24956571  0.16178533  0.20745259    -0.56400
O112        O  0.29867809  0.07880927  0.15521505    -0.55600
O113        O  0.82630688  0.67615675  0.29561392    -0.56800
C114        C  0.85205852  0.65931698  0.45291978     0.75800
O115        O  0.91772486  0.76627427  0.38885614    -0.58000
C116        C  0.83377819  0.71340619  0.27124816     0.75800
C117        C  0.77165722  0.78956189  0.39014558     0.78200
Cd118      Cd  0.84421515  0.72096588  0.37183737     1.37500
O119        O  0.83055369  0.64392190  0.41647186    -0.56800
O120        O  0.76175747  0.74603465  0.38340231    -0.55600
C121        C  0.94317766  0.73555468  0.36763839     0.78100
O122        O  0.81503135  0.80050705  0.39245503    -0.58000
O123        O  0.86734881  0.70143698  0.44982885    -0.56400
O124        O  0.84365643  0.75111966  0.29373190    -0.56400
O125        O  0.92230551  0.70153386  0.34692147    -0.55600
O126        O  0.61801122  0.87649828  0.30340808    -0.56800
C127        C  0.60287982  0.90645881  0.45700979     0.75800
O128        O  0.74514801  0.86996990  0.39458312    -0.58000
C129        C  0.65187395  0.88907726  0.27649817     0.75800
C130        C  0.67877436  0.99981889  0.37122725     0.78200
Cd131      Cd  0.66538013  0.89874398  0.37638330     1.37500
O132        O  0.58859467  0.88455187  0.42012413    -0.56800
O133        O  0.64162814  0.97857938  0.35799202    -0.55600
C134        C  0.73485237  0.82622110  0.39096532     0.78100
O135        O  0.71223233  0.97412362  0.38658191    -0.58000
O136        O  0.64627561  0.91701891  0.45672791    -0.56400
O137        O  0.68941619  0.90298456  0.29626698    -0.56400
O138        O  0.69177639  0.81588378  0.38439330    -0.55600
O139        O  0.82571106  0.67963468  0.19221370    -0.56800
C140        C  0.85028401  0.66391461  0.03938221     0.75800
O141        O  0.80956710  0.80871189  0.10066079    -0.58000
C142        C  0.83342496  0.71516447  0.21930416     0.75800
C143        C  0.94291026  0.74741359  0.12505875     0.78200
Cd144      Cd  0.84249304  0.72906497  0.11926423     1.37500
O145        O  0.82516706  0.65138918  0.07464911    -0.56800
O146        O  0.92254309  0.71276245  0.14493429    -0.55600
C147        C  0.76671344  0.79689329  0.10649868     0.78100
O148        O  0.91661269  0.77638679  0.10300753    -0.58000
O149        O  0.86675371  0.70571533  0.04156022    -0.56400
O150        O  0.84293510  0.75427257  0.19964527    -0.56400
O151        O  0.75869045  0.75326956  0.11406020    -0.55600
O152        O  0.57752009  0.91321729  0.08590219    -0.56800
C153        C  0.64976231  0.89034156  0.22468645     0.75800
O154        O  0.73633938  0.87634861  0.10120312    -0.58000
C155        C  0.59352495  0.90358316  0.04490258     0.75800
C156        C  0.66882451  0.00413577  0.12557262     0.78200
Cd157      Cd  0.65624699  0.90251773  0.12461499     1.37500
O158        O  0.61573120  0.87450009  0.19975465    -0.56800
O159        O  0.63192948  0.98340425  0.13989307    -0.55600
C160        C  0.72847437  0.83242198  0.10816466     0.78100
O161        O  0.70183036  0.97785975  0.10946607    -0.58000
O162        O  0.68385251  0.90927981  0.20291952    -0.56400
O163        O  0.63395403  0.88426432  0.04361499    -0.56400
O164        O  0.68662567  0.82080920  0.11972641    -0.55600
O165        O  0.82276581  0.38031292  0.29946881    -0.56800
C166        C  0.85152589  0.39820826  0.45630887     0.75800
O167        O  0.81733548  0.25433535  0.39531986    -0.58000
C168        C  0.83265026  0.34396707  0.27408742     0.75800
C169        C  0.94432048  0.32648628  0.36865650     0.78200
Cd170      Cd  0.84393453  0.33591420  0.37438551     1.37500
O171        O  0.82602063  0.41197490  0.42199558    -0.56800
O172        O  0.92219028  0.36194750  0.35243819    -0.55600
C173        C  0.77358858  0.26365009  0.39243184     0.78100
O174        O  0.91976824  0.29277679  0.38563242    -0.58000
O175        O  0.86940141  0.35720991  0.45133435    -0.56400
O176        O  0.84502964  0.30671242  0.29550265    -0.56400
O177        O  0.76253469  0.30678519  0.38557423    -0.55600
O178        O  0.62382748  0.18085209  0.30533948    -0.56800
C179        C  0.60352296  0.14952412  0.45886197     0.75800
O180        O  0.71431125  0.07683065  0.38643155    -0.58000
C181        C  0.65833120  0.16825986  0.27896714     0.75800
C182        C  0.73737236  0.22598825  0.39276529     0.78200
Cd183      Cd  0.66800048  0.15302916  0.37780223     1.37500
O184        O  0.59194153  0.13358307  0.41848283    -0.56800
O185        O  0.69489686  0.23538045  0.38183481    -0.55600
C186        C  0.68005118  0.05198271  0.37075074     0.78100
O187        O  0.74745377  0.18256407  0.40054303    -0.58000
O188        O  0.64208030  0.17249983  0.45976568    -0.56400
O189        O  0.69473575  0.15238739  0.29911389    -0.56400
O190        O  0.64385649  0.07420357  0.35722682    -0.55600
O191        O  0.82753346  0.40823180  0.08016863    -0.56800
C192        C  0.83266745  0.34293294  0.22214215     0.75800
O193        O  0.81894268  0.25014805  0.10658378    -0.58000
C194        C  0.84732297  0.39364948  0.04222952     0.75800
C195        C  0.94781874  0.31454281  0.12997124     0.78200
Cd196      Cd  0.84685959  0.33077702  0.12254128     1.37500
O197        O  0.82873583  0.37950666  0.19610235    -0.56800
O198        O  0.92584772  0.34693110  0.15226945    -0.55600
C199        C  0.77567405  0.26168129  0.10867291     0.78100
O200        O  0.92315905  0.28742900  0.10379752    -0.58000
O201        O  0.83977481  0.30352392  0.20146915    -0.56400
O202        O  0.85961069  0.35030271  0.04184933    -0.56400
O203        O  0.76583281  0.30542127  0.11324734    -0.55600
O204        O  0.62335376  0.18187588  0.20196766    -0.56800
C205        C  0.60757384  0.15395784  0.04689219     0.75800
O206        O  0.74799995  0.18189551  0.10891830    -0.58000
C207        C  0.65814431  0.16879980  0.22719113     0.75800
C208        C  0.67127000  0.05625164  0.12745660     0.78200
Cd209      Cd  0.66725190  0.15806136  0.12739729     1.37500
O210        O  0.59457064  0.18105819  0.08080790    -0.56800
O211        O  0.63623807  0.07983397  0.14300477    -0.55600
C212        C  0.73855065  0.22598538  0.10997200     0.78100
O213        O  0.70691648  0.07976724  0.11330853    -0.58000
O214        O  0.64926221  0.13875120  0.04975777    -0.56400
O215        O  0.69442634  0.15344963  0.20576480    -0.56400
O216        O  0.69577230  0.23807419  0.11577156    -0.55600
C217        C  0.11146040  0.50357069  0.46824058    -0.25300
C218        C  0.09725122  0.48264507  0.01139545    -0.13400
C219        C  0.09077422  0.51355267  0.05156215     0.37200
C220        C  0.09577468  0.56242568  0.04736640    -0.24800
C221        C  0.10126625  0.58354124  0.50198513    -0.14000
C222        C  0.11502057  0.55353815  0.46368306     0.38300
N223        N  0.13323220  0.57302098  0.42045569    -0.88300
H224        H  0.11683580  0.48333822  0.43627969     0.19400
H225        H  0.08859952  0.58285215  0.07887791     0.19400
N226        N  0.07264226  0.49956125  0.09647303    -0.87300
H227        H  0.14181505  0.54620115  0.39601517     0.36800
H228        H  0.16481908  0.59051246  0.42863620     0.41900
H229        H  0.09392835  0.47500171  0.11364372     0.41500
H230        H  0.03678197  0.49215135  0.09396995     0.36400
C231        C  0.99598176  0.61167096  0.45736486    -0.25300
C232        C  0.02255238  0.62583311  0.99892519    -0.13400
C233        C  0.99512890  0.62909363  0.04126135     0.37200
C234        C  0.94586105  0.63244614  0.03948158    -0.24800
C235        C  0.92023805  0.62673989  0.99713606    -0.14000
C236        C  0.94594255  0.61168164  0.45656448     0.38300
N237        N  0.92246484  0.59799389  0.41376016    -0.88300
H238        H  0.01416496  0.60101693  0.42535164     0.19400
H239        H  0.92775418  0.63804956  0.07286437     0.19400
N240        N  0.01630376  0.62608635  0.08700060    -0.87300
H241        H  0.93410100  0.56398097  0.40420945     0.36800
H242        H  0.93351234  0.62099874  0.38705062     0.41900
H243        H  0.00353062  0.59534439  0.10332734     0.41500
H244        H  0.00450081  0.65481071  0.10711511     0.36400
C245        C  0.94406390  0.41293509  0.04376478    -0.25300
C246        C  0.91999553  0.42883929  0.00329934    -0.13400
C247        C  0.94722344  0.45146049  0.46824016     0.37200
C248        C  0.99653424  0.45458814  0.47382057    -0.24800
C249        C  0.02035746  0.43558278  0.51350110    -0.14000
C250        C  0.99212684  0.41896050  0.05109150     0.38300
N251        N  0.00673337  0.40927328  0.09889008    -0.88300
H252        H  0.92515621  0.39899520  0.07380390     0.19400
H253        H  0.01698940  0.46961739  0.44503866     0.19400
N254        N  0.92783966  0.46986161  0.42534046    -0.87300
H255        H  0.04110989  0.41709374  0.10747128     0.36800
H256        H  0.98653487  0.43053349  0.12196398     0.41900
H257        H  0.90158795  0.49461445  0.43356123     0.41500
H258        H  0.91346927  0.44207439  0.40544303     0.36400
C259        C  0.81822145  0.50233387  0.97491321    -0.25300
C260        C  0.84656965  0.47816964  0.00823264    -0.13400
C261        C  0.86186474  0.50617319  0.54718305     0.37200
C262        C  0.86054105  0.55564857  0.54520842    -0.24800
C263        C  0.84511731  0.57979273  0.00489210    -0.14000
C264        C  0.81569493  0.55262427  0.97406025     0.38300
N265        N  0.77757827  0.57328477  0.94798210    -0.88300
H266        H  0.79675800  0.48304952  0.94993039     0.19400
H267        H  0.87686077  0.57495644  0.57400931     0.19400
N268        N  0.88307188  0.48491391  0.58789028    -0.87300
H269        H  0.78532501  0.57113879  0.91174936     0.36800
H270        H  0.77113750  0.60831366  0.95868699     0.41900
H271        H  0.86366104  0.49536663  0.61783027     0.41500
H272        H  0.91734344  0.49841033  0.59152556     0.36400
C273        C  0.50055269  0.16611677  0.46422036    -0.25300
C274        C  0.52513311  0.15864500  0.00741244    -0.13400
C275        C  0.49661243  0.15647289  0.04918083     0.37200
C276        C  0.44725902  0.16109465  0.04656750    -0.24800
C277        C  0.42254944  0.16055782  0.00316838    -0.14000
C278        C  0.45098249  0.16297567  0.46101843     0.38300
N279        N  0.43121553  0.15936877  0.41457787    -0.88300
H280        H  0.51924463  0.16989371  0.43120689     0.19400
H281        H  0.42879165  0.15693965  0.07963613     0.19400
N282        N  0.51580104  0.14159875  0.09360258    -0.87300
H283        H  0.44650677  0.13013783  0.39719681     0.36800
H284        H  0.44032679  0.19004357  0.39584411     0.41900
H285        H  0.49985353  0.10958002  0.10347618     0.41500
H286        H  0.50724077  0.16730644  0.11920877     0.36400
C287        C  0.38390019  0.00411675  0.03629094    -0.25300
C288        C  0.37681228  0.98023335  0.99255633    -0.13400
C289        C  0.37851304  0.00910200  0.45094992     0.37200
C290        C  0.37950125  0.05886982  0.45550118    -0.24800
C291        C  0.37919034  0.08317174  0.00011133    -0.14000
C292        C  0.38580949  0.05404580  0.04039159     0.38300
N293        N  0.39536314  0.07444373  0.08591214    -0.88300
H294        H  0.38957669  0.98449806  0.06835189     0.19400
H295        H  0.37886353  0.07942677  0.42325672     0.19400
N296        N  0.37812700  0.99013336  0.40384906    -0.87300
H297        H  0.42834775  0.06201030  0.09689643     0.36800
H298        H  0.37034109  0.06149271  0.10973868     0.41900
H299        H  0.40889334  0.00161020  0.38669286     0.41500
H300        H  0.34992222  0.00555546  0.38613214     0.36400
C301        C  0.61425522  0.00145165  0.50265114    -0.25300
C302        C  0.57104087  0.97807072  0.00601014    -0.13400
C303        C  0.53140679  0.00657967  0.01931500     0.37200
C304        C  0.53297689  0.05610713  0.01503102    -0.24800
C305        C  0.57529722  0.08132995  0.00601078    -0.14000
C306        C  0.61677721  0.05116352  0.50038296     0.38300
N307        N  0.66232613  0.07135323  0.49141533    -0.88300
H308        H  0.64750865  0.98284502  0.50232011     0.19400
H309        H  0.49981094  0.07380163  0.02090322     0.19400
N310        N  0.49188980  0.98822523  0.04499566    -0.87300
H311        H  0.67584087  0.05532236  0.46097997     0.36800
H312        H  0.68477211  0.06131083  0.51891503     0.41900
H313        H  0.50334925  0.96490862  0.07119864     0.41500
H314        H  0.46886480  0.97169777  0.02186934     0.36400
C315        C  0.44680776  0.91396549  0.44459415    -0.25300
C316        C  0.41911558  0.90004431  0.98427404    -0.13400
C317        C  0.44384685  0.87271593  0.01878874     0.37200
C318        C  0.49370670  0.87615405  0.02162329    -0.24800
C319        C  0.51953405  0.90489831  0.98982700    -0.14000
C320        C  0.49551050  0.92063222  0.44873909     0.38300
N321        N  0.51898635  0.94954914  0.41420454    -0.88300
H322        H  0.43027207  0.92632006  0.41295224     0.19400
H323        H  0.51161944  0.85769230  0.04985834     0.19400
N324        N  0.42116955  0.83719869  0.04719516    -0.87300
H325        H  0.50268213  0.98297483  0.41397437     0.36800
H326        H  0.51419775  0.93385488  0.38085685     0.41900
H327        H  0.38637604  0.83125036  0.03657612     0.41500
H328        H  0.42222559  0.84791654  0.08272194     0.36400
C329        C  0.57074188  0.92092385  0.49949817    -0.01500
C330        C  0.37001538  0.92335950  0.49005799    -0.01500
C331        C  0.37175181  0.13836618  0.00264284    -0.01500
C332        C  0.57659572  0.13600431  0.50456011    -0.01500
C333        C  0.86346751  0.42625963  0.50177833    -0.01500
C334        C  0.86416509  0.63098581  0.49774891    -0.01500
C335        C  0.07690383  0.63309122  0.49674339    -0.01500
C336        C  0.07666983  0.43047000  0.00926654    -0.01500
O337        O  0.31802910  0.88509429  0.79867134    -0.56800
C338        C  0.33638667  0.91330872  0.94912661     0.75800
O339        O  0.22862832  0.98269670  0.89538076    -0.58000
C340        C  0.28307386  0.89193064  0.77134233     0.75800
C341        C  0.19945611  0.83407265  0.88902419     0.78200
Cd342      Cd  0.26916356  0.90648602  0.87168463     1.37500
O343        O  0.34640343  0.88654388  0.91393731    -0.56800
O344        O  0.24303866  0.82438349  0.88580583    -0.55600
C345        C  0.25426932  0.00775454  0.86829387     0.78100
O346        O  0.18822668  0.87771962  0.88890032    -0.58000
O347        O  0.29637389  0.93331240  0.94775649    -0.56400
O348        O  0.24426237  0.90304845  0.79084372    -0.56400
O349        O  0.28169228  0.98556107  0.84035359    -0.55600
O350        O  0.11840850  0.68285059  0.79411100    -0.56800
C351        C  0.09099176  0.66182864  0.95192789     0.75800
O352        O  0.11979291  0.80583250  0.89170238    -0.58000
C353        C  0.10873521  0.71950358  0.76966643     0.75800
C354        C  0.99450461  0.73587546  0.86825957     0.78200
Cd355      Cd  0.09424770  0.72510062  0.87068995     1.37500
O356        O  0.08389920  0.64621233  0.91028663    -0.56800
O357        O  0.01662497  0.70116815  0.85027527    -0.55600
C358        C  0.16362548  0.79637067  0.88827717     0.78100
O359        O  0.01881834  0.76863532  0.88755401    -0.58000
O360        O  0.10633636  0.70416006  0.95377586    -0.56400
O361        O  0.09592340  0.75628267  0.79226658    -0.56400
O362        O  0.17513425  0.75329214  0.88034307    -0.55600
O363        O  0.36027472  0.90708393  0.57655038    -0.56800
C364        C  0.28555289  0.89068032  0.71924777     0.75800
O365        O  0.23795182  0.97996284  0.60661905    -0.58000
C366        C  0.34235874  0.90872209  0.53535356     0.75800
C367        C  0.20926250  0.83568166  0.60119393     0.78200
Cd368      Cd  0.28127599  0.90429804  0.61866843     1.37500
O369        O  0.32244521  0.88064704  0.69503230    -0.56800
O370        O  0.25159560  0.82304052  0.60941601    -0.55600
C371        C  0.26904620  0.00433255  0.62809251     0.78100
O372        O  0.20119121  0.87991150  0.59741395    -0.57200
O373        O  0.24914771  0.90255222  0.69645986    -0.56400
O374        O  0.29812064  0.90203336  0.53418860    -0.56400
O375        O  0.30413564  0.98229867  0.64460181    -0.55600
O376        O  0.11330141  0.68506123  0.69041778    -0.56800
C377        C  0.08888541  0.66773279  0.53789918     0.75800
O378        O  0.01896256  0.77566759  0.59846324    -0.58000
C379        C  0.10921935  0.72128357  0.71751593     0.75800
C380        C  0.17065428  0.80094694  0.60049050     0.78200
Cd381      Cd  0.09587048  0.73429131  0.61725390     1.37500
O382        O  0.11791322  0.65953969  0.57118278    -0.56800
O383        O  0.17867233  0.75705744  0.60599536    -0.55600
C384        C  0.99504894  0.74915666  0.62585563     0.78100
O385        O  0.12769249  0.81371113  0.59827438    -0.58000
O386        O  0.06728768  0.70708697  0.54082903    -0.56400
O387        O  0.10213087  0.76086983  0.69772376    -0.56400
O388        O  0.01819987  0.72102076  0.65170191    -0.55600
O389        O  0.11174769  0.38519822  0.80355807    -0.56800
C390        C  0.08572944  0.40128109  0.96311351     0.75800
O391        O  0.01910539  0.29476840  0.88793768    -0.58000
C392        C  0.10905951  0.34732683  0.77859054     0.75800
C393        C  0.16526084  0.26926119  0.89913521     0.78200
Cd394      Cd  0.09415763  0.33935381  0.87974672     1.37500
O395        O  0.11847976  0.40813210  0.93292489    -0.56800
O396        O  0.17549171  0.31259056  0.89238459    -0.55600
C397        C  0.99474273  0.32810868  0.87000137     0.78100
O398        O  0.12166809  0.25881490  0.90169594    -0.58000
O399        O  0.06008699  0.36535430  0.95464150    -0.56400
O400        O  0.10239994  0.30901045  0.80073738    -0.56400
O401        O  0.01679023  0.36432959  0.85515109    -0.55600
O402        O  0.32241498  0.17562569  0.80759645    -0.56800
C403        C  0.33857852  0.15259280  0.96156454     0.75800
O404        O  0.19261888  0.18871284  0.90327662    -0.58000
C405        C  0.28625541  0.17140680  0.78117984     0.75800
C406        C  0.25654579  0.05994545  0.87142277     0.78200
Cd407      Cd  0.27315619  0.16065439  0.88204749     1.37500
O408        O  0.34614899  0.18450090  0.93076815    -0.56800
O409        O  0.28936786  0.08189462  0.85026887    -0.55600
C410        C  0.20228158  0.23254502  0.89929175     0.78100
O411        O  0.22883303  0.08480334  0.89709450    -0.58000
O412        O  0.30024056  0.13002448  0.95647258    -0.56400
O413        O  0.24697814  0.16573796  0.80182750    -0.56400
O414        O  0.24513063  0.24307732  0.89150045    -0.55600
O415        O  0.11064721  0.38145350  0.69933329    -0.56800
C416        C  0.09304014  0.39496653  0.54674467     0.75800
O417        O  0.12616286  0.24802408  0.61076515    -0.58000
C418        C  0.11043371  0.34532272  0.72631048     0.75800
C419        C  0.99785006  0.31226931  0.63078788     0.78200
Cd420      Cd  0.09858696  0.32934581  0.62564117     1.37500
O421        O  0.12235676  0.40436813  0.57947823    -0.56800
O422        O  0.01994856  0.33823919  0.65996831    -0.55600
C423        C  0.16947297  0.25944440  0.60997698     0.78100
O424        O  0.02274346  0.28882307  0.60129444    -0.58000
O425        O  0.07415136  0.35420548  0.54854816    -0.56400
O426        O  0.10824289  0.30504389  0.70620987    -0.56400
O427        O  0.17938027  0.30328181  0.61260198    -0.55600
O428        O  0.32464863  0.17310266  0.70369380    -0.56800
C429        C  0.34077897  0.14871121  0.54617361     0.75800
O430        O  0.23681101  0.08070057  0.61000203    -0.58000
C431        C  0.28739873  0.16994536  0.72898395     0.75800
C432        C  0.20671347  0.22363299  0.61034526     0.78200
Cd433      Cd  0.27844254  0.15570557  0.62811371     1.37500
O434        O  0.35017592  0.17914612  0.57847901    -0.56800
O435        O  0.24976707  0.23561286  0.61348970    -0.55600
C436        C  0.26717008  0.05598919  0.63184974     0.78100
O437        O  0.19721378  0.17959549  0.61125607    -0.58000
O438        O  0.30261299  0.12605269  0.55179233    -0.56400
O439        O  0.24907598  0.16281856  0.70726132    -0.56400
O440        O  0.29856169  0.07797001  0.65513898    -0.55600
O441        O  0.82433668  0.67703229  0.79559667    -0.56800
C442        C  0.85176850  0.65936116  0.95279007     0.75800
O443        O  0.91756429  0.76702065  0.88726109    -0.58000
C444        C  0.83216646  0.71422268  0.77125761     0.75800
C445        C  0.77073841  0.78902639  0.89066011     0.78200
Cd446      Cd  0.84379704  0.72103683  0.87176563     1.37500
O447        O  0.83494459  0.64225126  0.91461089    -0.56800
O448        O  0.76098689  0.74566426  0.88253844    -0.55600
C449        C  0.94301362  0.73526532  0.86764340     0.78100
O450        O  0.81406952  0.79991523  0.89400773    -0.58000
O451        O  0.86187053  0.70314601  0.95139545    -0.56400
O452        O  0.84279618  0.75173701  0.79375051    -0.56400
O453        O  0.92206404  0.70048675  0.84838484    -0.55600
O454        O  0.61728849  0.87594891  0.80414488    -0.56800
C455        C  0.60248019  0.90765963  0.95726926     0.75800
O456        O  0.74425499  0.86944443  0.89596714    -0.58000
C457        C  0.65114190  0.88828146  0.77710504     0.75800
C458        C  0.67780707  0.99993407  0.87090005     0.78200
Cd459      Cd  0.66480031  0.89873582  0.87678948     1.37500
O460        O  0.58815159  0.88505525  0.92081231    -0.56800
O461        O  0.64056445  0.97849556  0.85826333    -0.55600
C462        C  0.73392681  0.82574317  0.89173933     0.78100
O463        O  0.71165379  0.97437868  0.88567001    -0.58000
O464        O  0.64582102  0.91843125  0.95668096    -0.56400
O465        O  0.68873241  0.90231089  0.79671438    -0.56400
O466        O  0.69088720  0.81559902  0.88465934    -0.55600
O467        O  0.82540812  0.68007851  0.69228486    -0.56800
C468        C  0.84990026  0.66411400  0.53932274     0.75800
O469        O  0.80927555  0.80904022  0.60113457    -0.58000
C470        C  0.83166201  0.71596014  0.71929884     0.75800
C471        C  0.94299738  0.74667938  0.62541137     0.78200
Cd472      Cd  0.84224337  0.72932267  0.61922480     1.37500
O473        O  0.82518332  0.65170830  0.57492388    -0.56800
O474        O  0.92229626  0.71203244  0.64495556    -0.55600
C475        C  0.76637926  0.79687663  0.60597038     0.78100
O476        O  0.91690984  0.77617409  0.60379256    -0.58000
O477        O  0.86599107  0.70609954  0.54094524    -0.56400
O478        O  0.84005757  0.75527565  0.69954571    -0.56400
O479        O  0.75843431  0.75303889  0.61239627    -0.55600
O480        O  0.57673839  0.91101831  0.58564740    -0.56800
C481        C  0.64894250  0.88928598  0.72529133     0.75800
O482        O  0.73580795  0.87636468  0.60254355    -0.58000
C483        C  0.59342148  0.90206369  0.54474972     0.75800
C484        C  0.66688393  0.00354961  0.62604900     0.78200
Cd485      Cd  0.65524392  0.90167001  0.62516586     1.37500
O486        O  0.61484548  0.87344328  0.70044749    -0.56800
O487        O  0.62979057  0.98267549  0.63967971    -0.55600
C488        C  0.72796240  0.83221100  0.60797260     0.78100
O489        O  0.70029326  0.97735593  0.61070442    -0.58000
O490        O  0.68300963  0.90812003  0.70342050    -0.56400
O491        O  0.63426418  0.88365965  0.54379026    -0.56400
O492        O  0.68595639  0.82013656  0.61845340    -0.55600
O493        O  0.82101693  0.37991940  0.79968580    -0.56800
C494        C  0.85208661  0.39789865  0.95643340     0.75800
O495        O  0.81624620  0.25426484  0.89515994    -0.58000
C496        C  0.83178944  0.34387015  0.77422961     0.75800
C497        C  0.94308328  0.32721135  0.86862521     0.78200
Cd498      Cd  0.84295258  0.33583998  0.87456839     1.37500
O499        O  0.82607876  0.41165994  0.92249443    -0.56800
O500        O  0.92071023  0.36241859  0.85220079    -0.55600
C501        C  0.77251226  0.26378711  0.89270106     0.78100
O502        O  0.91883730  0.29327933  0.88564515    -0.58000
O503        O  0.86978312  0.35684111  0.95126238    -0.56400
O504        O  0.84496744  0.30685546  0.79559617    -0.56400
O505        O  0.76154768  0.30703766  0.88639917    -0.55600
O506        O  0.62225539  0.18075141  0.80516022    -0.56800
C507        C  0.60335180  0.15086035  0.95918102     0.75800
O508        O  0.71332565  0.07711963  0.88534390    -0.58000
C509        C  0.65691468  0.16859231  0.77879694     0.75800
C510        C  0.73621304  0.22623208  0.89280635     0.78200
Cd511      Cd  0.66687180  0.15341034  0.87759236     1.37500
O512        O  0.59109372  0.13527099  0.91885830    -0.56800
O513        O  0.69378765  0.23574903  0.88177114    -0.55600
C514        C  0.67879647  0.05214629  0.87050433     0.78100
O515        O  0.74621844  0.18276432  0.90042639    -0.58000
O516        O  0.64229262  0.17315069  0.95984423    -0.56400
O517        O  0.69355065  0.15329561  0.79895627    -0.56400
O518        O  0.64216956  0.07428314  0.85800836    -0.55600
O519        O  0.82597720  0.40850914  0.57990696    -0.56800
C520        C  0.83182317  0.34291958  0.72225115     0.75800
O521        O  0.81701289  0.25059480  0.60597283    -0.58000
C522        C  0.84606856  0.39394340  0.54211260     0.75800
C523        C  0.94593578  0.31475011  0.62876478     0.78200
Cd524      Cd  0.84499710  0.33110314  0.62233448     1.37500
O525        O  0.82572976  0.37919483  0.69621194    -0.56800
O526        O  0.92436101  0.34749373  0.65097483    -0.55600
C527        C  0.77372828  0.26195831  0.60838093     0.78100
O528        O  0.92089094  0.28751039  0.60310181    -0.58000
O529        O  0.84087574  0.30394623  0.70151919    -0.56400
O530        O  0.85838315  0.35061719  0.54179337    -0.56400
O531        O  0.76380334  0.30563992  0.61334665    -0.55600
O532        O  0.62169707  0.18136879  0.70175274    -0.56800
C533        C  0.60711891  0.15287730  0.54647647     0.75800
O534        O  0.74645090  0.18201760  0.60873786    -0.58000
C535        C  0.65668952  0.16891928  0.72702086     0.75800
C536        C  0.66927643  0.05570953  0.62781219     0.78200
Cd537      Cd  0.66586101  0.15765187  0.62732902     1.37500
O538        O  0.59371809  0.18011342  0.58014363    -0.56800
O539        O  0.63393009  0.07944571  0.64238033    -0.55600
C540        C  0.73675055  0.22606739  0.60964898     0.78100
O541        O  0.70534165  0.07910818  0.61453593    -0.58000
O542        O  0.64891970  0.13800315  0.54959115    -0.56400
O543        O  0.69317111  0.15395318  0.70565774    -0.56400
O544        O  0.69388537  0.23791323  0.61534588    -0.55600
C545        C  0.11551158  0.50543574  0.97030159    -0.25300
C546        C  0.09617684  0.48144096  0.51073417    -0.13400
C547        C  0.09168411  0.51260676  0.55084982     0.37200
C548        C  0.09697974  0.56139471  0.54601926    -0.24800
C549        C  0.10188245  0.58486836  0.00378436    -0.14000
C550        C  0.11895919  0.55554963  0.96647269     0.38300
N551        N  0.14088014  0.57589137  0.92538171    -0.88300
H552        H  0.12460901  0.48608757  0.93890668     0.19400
H553        H  0.09078818  0.58198269  0.57764635     0.19400
N554        N  0.07459491  0.49909004  0.59633196    -0.87300
H555        H  0.15202155  0.54951061  0.90151180     0.36800
H556        H  0.17133394  0.59365788  0.93671282     0.41900
H557        H  0.09582878  0.47405460  0.61290927     0.41500
H558        H  0.03860998  0.49211081  0.59470071     0.36400
C559        C  0.99706713  0.61289113  0.95776553    -0.25300
C560        C  0.02177779  0.62436594  0.49838930    -0.13400
C561        C  0.99470805  0.62713365  0.54098467     0.37200
C562        C  0.94539078  0.63087211  0.53961655    -0.24800
C563        C  0.91952264  0.62564836  0.49736154    -0.14000
C564        C  0.94700962  0.61255607  0.95665015     0.38300
N565        N  0.92393366  0.59779360  0.91399974    -0.88300
H566        H  0.01553731  0.60218892  0.92592865     0.19400
H567        H  0.92744774  0.63654277  0.57308049     0.19400
N568        N  0.01634178  0.62312089  0.58643494    -0.87300
H569        H  0.93586895  0.56366170  0.90531140     0.36800
H570        H  0.93507893  0.62021850  0.88685060     0.41900
H571        H  0.00355514  0.59213049  0.60229337     0.41500
H572        H  0.00496280  0.65154818  0.60723350     0.36400
C573        C  0.94282008  0.41344564  0.54418347    -0.25300
C574        C  0.91887000  0.42925776  0.50358972    -0.13400
C575        C  0.94829814  0.45107301  0.96791309     0.37200
C576        C  0.99765698  0.45439852  0.97345149    -0.24800
C577        C  0.02157329  0.43580027  0.01325018    -0.14000
C578        C  0.99093390  0.41921909  0.55144563     0.38300
N579        N  0.00570099  0.40990525  0.59923705    -0.88300
H580        H  0.92378964  0.39978550  0.57425928     0.19400
H581        H  0.01808744  0.46954275  0.94470353     0.19400
N582        N  0.92878517  0.46936512  0.92503506    -0.87300
H583        H  0.04033770  0.41727712  0.60735716     0.36800
H584        H  0.98596290  0.43174134  0.62214189     0.41900
H585        H  0.90259116  0.49417105  0.93329276     0.41500
H586        H  0.91423685  0.44152965  0.90534789     0.36400
C587        C  0.81702782  0.50252568  0.47500642    -0.25300
C588        C  0.84540028  0.47838488  0.50829453    -0.13400
C589        C  0.86332021  0.50606180  0.04690774     0.37200
C590        C  0.86220556  0.55556229  0.04472182    -0.24800
C591        C  0.84374122  0.57990369  0.50529827    -0.14000
C592        C  0.81427459  0.55281634  0.47444408     0.38300
N593        N  0.77539517  0.57340142  0.44947302    -0.88300
H594        H  0.79565696  0.48316966  0.44997151     0.19400
H595        H  0.87865077  0.57493093  0.07341422     0.19400
N596        N  0.88452043  0.48484569  0.08764299    -0.87300
H597        H  0.78245465  0.57197946  0.41308164     0.36800
H598        H  0.76876119  0.60816345  0.46096679     0.41900
H599        H  0.86524110  0.49553215  0.11759216     0.41500
H600        H  0.91887183  0.49816263  0.09113327     0.36400
C601        C  0.50070109  0.16830247  0.96503643    -0.25300
C602        C  0.52493799  0.15690475  0.50670617    -0.13400
C603        C  0.49639194  0.15500240  0.54849844     0.37200
C604        C  0.44709506  0.16000677  0.54591956    -0.24800
C605        C  0.42237764  0.15942535  0.50257230    -0.14000
C606        C  0.45117261  0.16464919  0.96171694     0.38300
N607        N  0.43152938  0.16102865  0.91523641    -0.88300
H608        H  0.51935319  0.17277097  0.93210012     0.19400
H609        H  0.42858942  0.15606645  0.57900081     0.19400
N610        N  0.51543587  0.13993701  0.59292760    -0.87300
H611        H  0.44709475  0.13197888  0.89779853     0.36800
H612        H  0.44039419  0.19184978  0.89662449     0.41900
H613        H  0.49924357  0.10803759  0.60278271     0.41500
H614        H  0.50705251  0.16568315  0.61855236     0.36400
C615        C  0.38418895  0.00308290  0.53570906    -0.25300
C616        C  0.37749008  0.97927004  0.49188731    -0.13400
C617        C  0.37784589  0.00997754  0.95155659     0.37200
C618        C  0.37927208  0.05975929  0.95598400    -0.24800
C619        C  0.37904004  0.08217412  0.49968488    -0.14000
C620        C  0.38567852  0.05301463  0.53993120     0.38300
N621        N  0.39474527  0.07338895  0.58555894    -0.88300
H622        H  0.38964251  0.98338313  0.56777435     0.19400
H623        H  0.37875220  0.08026971  0.92369848     0.19400
N624        N  0.37718947  0.99089561  0.90450625    -0.87300
H625        H  0.42773697  0.06118052  0.59674868     0.36800
H626        H  0.36966384  0.06014036  0.60915717     0.41900
H627        H  0.40796945  0.00212301  0.88721765     0.41500
H628        H  0.34903187  0.00647998  0.88685491     0.36400
C629        C  0.61408430  0.00287790  0.00269025    -0.25300
C630        C  0.57123631  0.97656906  0.50596201    -0.13400
C631        C  0.53162842  0.00497056  0.51950966     0.37200
C632        C  0.53307650  0.05450000  0.51508646    -0.24800
C633        C  0.57533297  0.07982727  0.50585533    -0.14000
C634        C  0.61667386  0.05256957  0.00033369     0.38300
N635        N  0.66221522  0.07263046  0.99101052    -0.88300
H636        H  0.64730955  0.98421497  0.00235979     0.19400
H637        H  0.49987314  0.07210402  0.52099789     0.19400
N638        N  0.49229171  0.98651037  0.54543965    -0.87300
H639        H  0.67547634  0.05653327  0.96050177     0.36800
H640        H  0.68484724  0.06254142  0.01833499     0.41900
H641        H  0.50400403  0.96349734  0.57180638     0.41500
H642        H  0.46930159  0.96955583  0.52259501     0.36400
C643        C  0.44638701  0.91492925  0.94548066    -0.25300
C644        C  0.41940910  0.89886283  0.48318747    -0.13400
C645        C  0.44392353  0.87093085  0.51733350     0.37200
C646        C  0.49378986  0.87431289  0.52046734    -0.24800
C647        C  0.51975592  0.90351336  0.48916672    -0.14000
C648        C  0.49512041  0.92158931  0.94933048     0.38300
N649        N  0.51845849  0.95016729  0.91442343    -0.88300
H650        H  0.42972433  0.92716142  0.91384700     0.19400
H651        H  0.51158863  0.85541545  0.54848700     0.19400
N652        N  0.42099944  0.83487988  0.54487276    -0.87300
H653        H  0.50215894  0.98358897  0.91394393     0.36800
H654        H  0.51352685  0.93415376  0.88124489     0.41900
H655        H  0.38611945  0.82957049  0.53417184     0.41500
H656        H  0.42210528  0.84475397  0.58062684     0.36400
loop_ 
_geom_bond_atom_site_label_1 
_geom_bond_atom_site_label_2 
_geom_bond_distance 
_geom_bond_site_symmetry_2 
_ccdc_geom_bond_type 
C1          C155   1.530   1_556  S
C1          C302   1.573   1_556  S
C1          C319   1.550       .  S
C1          C455   1.552       .  S
C2           C38   1.553   1_556  S
C2          C288   1.586       .  S
C2          C316   1.568       .  S
C2          C338   1.537       .  S
C3           C75   1.546       .  S
C3          C429   1.543       .  S
C3          C605   1.565       .  S
C3          C619   1.565       .  S
C4          C205   1.541       .  S
C4          C274   1.576       .  S
C4          C305   1.579       .  S
C4          C507   1.543   1_554  S
C5          C194   1.541       .  S
C5          C246   1.572       .  S
C5          C260   1.561       .  S
C5          C494   1.540   1_554  S
C6          C140   1.545   1_556  S
C6          C235   1.573       .  S
C6          C263   1.562   1_556  S
C6          C442   1.541       .  S
C7           C49   1.546   1_556  S
C7          C232   1.579       .  S
C7          C351   1.553       .  S
C7          C549   1.560   1_556  S
C8           C62   1.547       .  S
C8          C249   1.568       .  S
C8          C416   1.527       .  S
C8          C546   1.569       .  S
O9           C12   1.272       .  A
O9          Cd14   2.538       .  S
C10         C330   1.536       .  S
C10          O19   1.264       .  A
C10          O15   1.272       .  A
O11          C17   1.269   1_565  A
O11         Cd14   2.509       .  S
C12          O20   1.264       .  A
C12          C36   1.470       .  S
C13          O18   1.267       .  A
C13          O16   1.265       .  A
C13          C30   1.466       .  S
Cd14         O21   2.421       .  S
Cd14         O20   2.388       .  S
Cd14         O19   2.397       .  S
Cd14         O15   2.555       .  S
Cd14         O18   2.476       .  S
Cd14         O16   2.452       .  S
C17          O21   1.264   1_545  A
C17          C78   1.468       .  S
O22          C25   1.274       .  A
O22         Cd27   2.547       .  S
C23         C335   1.553       .  S
C23          O32   1.267       .  A
C23          O28   1.267       .  A
O24          C30   1.271       .  A
O24         Cd27   2.451       .  S
C25          O33   1.262       .  A
C25          C51   1.472       .  S
C26          O31   1.270   1_655  A
C26          O29   1.260   1_655  A
C26         C121   1.455       .  S
Cd27         O34   2.432       .  S
Cd27         O33   2.382       .  S
Cd27         O32   2.456       .  S
Cd27         O28   2.496       .  S
Cd27         O31   2.495       .  S
Cd27         O29   2.365       .  S
C30          O34   1.271       .  A
O35          C38   1.271       .  A
O35         Cd40   2.519       .  S
C36          O45   1.262       .  A
C36          O41   1.275       .  A
O37          C43   1.268   1_565  A
O37         Cd40   2.477       .  S
C38          O46   1.266       .  A
C39          O44   1.269       .  A
C39          O42   1.271       .  A
C39          C52   1.462       .  S
Cd40         O47   2.391       .  S
Cd40         O46   2.431       .  S
Cd40         O45   2.370       .  S
Cd40         O41   2.540       .  S
Cd40         O44   2.438       .  S
Cd40         O42   2.438       .  S
C43          O47   1.262   1_545  A
C43         C108   1.455       .  S
O48          C51   1.273       .  A
O48         Cd53   2.541       .  S
C49          O58   1.265       .  A
C49          O54   1.272       .  A
O50          C56   1.270   1_455  A
O50         Cd53   2.524       .  S
C51          O59   1.265       .  A
C52          O57   1.268       .  A
C52          O55   1.264       .  A
Cd53         O60   2.425       .  S
Cd53         O59   2.390       .  S
Cd53         O58   2.419       .  S
Cd53         O54   2.535       .  S
Cd53         O57   2.462       .  S
Cd53         O55   2.440       .  S
C56          O60   1.264   1_655  A
C56         C143   1.472       .  S
O61          C64   1.274       .  A
O61         Cd66   2.564       .  S
C62          O71   1.262       .  A
C62          O67   1.273       .  A
O63          C69   1.273   1_455  A
O63         Cd66   2.484       .  S
C64          O72   1.262       .  A
C64          C90   1.476       .  S
C65          O70   1.270       .  A
C65          O68   1.266       .  A
C65          C82   1.468       .  S
Cd66         O73   2.400       .  S
Cd66         O72   2.387       .  S
Cd66         O71   2.417       .  S
Cd66         O67   2.551       .  S
Cd66         O70   2.478       .  S
Cd66         O68   2.441       .  S
C69          O73   1.267   1_655  A
C69         C169   1.464       .  S
O74          C77   1.273       .  A
O74         Cd79   2.553       .  S
C75          O84   1.264       .  A
C75          O80   1.271       .  A
O76          C82   1.267       .  A
O76         Cd79   2.476       .  S
C77          O85   1.263       .  A
C77         C103   1.473       .  S
C78          O83   1.270       .  A
C78          O81   1.265       .  A
Cd79         O86   2.455       .  S
Cd79         O85   2.388       .  S
Cd79         O84   2.398       .  S
Cd79         O80   2.566       .  S
Cd79         O83   2.506       .  S
Cd79         O81   2.423       .  S
C82          O86   1.266       .  A
O87          C90   1.273       .  A
O87         Cd92   2.561       .  S
C88         C336   1.530       .  S
C88          O97   1.265       .  A
C88          O93   1.271       .  A
O89          C95   1.266       .  A
O89         Cd92   2.441       .  S
C90          O98   1.263       .  A
C91          O96   1.268   1_655  A
C91          O94   1.264   1_655  A
C91         C195   1.472       .  S
Cd92         O99   2.425       .  S
Cd92         O98   2.394       .  S
Cd92         O97   2.392       .  S
Cd92         O93   2.582       .  S
Cd92         O96   2.525       .  S
Cd92         O94   2.439       .  S
C95          O99   1.265       .  A
C95         C104   1.455       .  S
O100        C103   1.274       .  A
O100       Cd105   2.548       .  S
C101        C331   1.541       .  S
C101        O110   1.263       .  A
C101        O106   1.274       .  A
O102        C108   1.269       .  A
O102       Cd105   2.464       .  S
C103        O111   1.263       .  A
C104        O109   1.266       .  A
C104        O107   1.266       .  A
Cd105       O112   2.388       .  S
Cd105       O111   2.382       .  S
Cd105       O110   2.396       .  S
Cd105       O106   2.545       .  S
Cd105       O109   2.439       .  S
Cd105       O107   2.424       .  S
C108        O112   1.266       .  A
O113        C116   1.274       .  A
O113       Cd118   2.537       .  S
C114        C334   1.539       .  S
C114        O123   1.263       .  A
C114        O119   1.270       .  A
O115        C121   1.269       .  A
O115       Cd118   2.485       .  S
C116        O124   1.263       .  A
C116        C142   1.467       .  S
C117        O122   1.267       .  A
C117        O120   1.268       .  A
C117        C134   1.464       .  S
Cd118       O125   2.377       .  S
Cd118       O124   2.368       .  S
Cd118       O123   2.367       .  S
Cd118       O119   2.541       .  S
Cd118       O122   2.447       .  S
Cd118       O120   2.455       .  S
C121        O125   1.264       .  A
O126        C129   1.272       .  A
O126       Cd131   2.536       .  S
C127        C329   1.553       .  S
C127        O136   1.263       .  A
C127        O132   1.273       .  A
O128        C134   1.267       .  A
O128       Cd131   2.454       .  S
C129        O137   1.262       .  A
C129        C153   1.465       .  S
C130        O135   1.269       .  A
C130        O133   1.265       .  A
C130        C186   1.466   1_565  S
Cd131       O138   2.456       .  S
Cd131       O137   2.362       .  S
Cd131       O136   2.381       .  S
Cd131       O132   2.527       .  S
Cd131       O135   2.514       .  S
Cd131       O133   2.402       .  S
C134        O138   1.267       .  A
O139        C142   1.272       .  A
O139       Cd144   2.535       .  S
C140        O149   1.265       .  A
C140        O145   1.272       .  A
O141        C147   1.267       .  A
O141       Cd144   2.484       .  S
C142        O150   1.263       .  A
C143        O148   1.270       .  A
C143        O146   1.265       .  A
Cd144       O151   2.470       .  S
Cd144       O150   2.372       .  S
Cd144       O149   2.383       .  S
Cd144       O145   2.560       .  S
Cd144       O148   2.525       .  S
Cd144       O146   2.424       .  S
C147        O151   1.266       .  A
C147        C160   1.472       .  S
O152        C155   1.268       .  A
O152       Cd157   2.503       .  S
C153        O162   1.261       .  A
C153        O158   1.273       .  A
O154        C160   1.271       .  A
O154       Cd157   2.467       .  S
C155        O163   1.266       .  A
C156        O161   1.270   1_545  A
C156        O159   1.262   1_545  A
C156        C208   1.466       .  S
Cd157       O164   2.453       .  S
Cd157       O163   2.425       .  S
Cd157       O162   2.353       .  S
Cd157       O158   2.537       .  S
Cd157       O161   2.517       .  S
Cd157       O159   2.409       .  S
C160        O164   1.270       .  A
O165        C168   1.273       .  A
O165       Cd170   2.537       .  S
C166        C333   1.540       .  S
C166        O175   1.264       .  A
C166        O171   1.272       .  A
O167        C173   1.267       .  A
O167       Cd170   2.487       .  S
C168        O176   1.263       .  A
C168        C192   1.466       .  S
C169        O174   1.270       .  A
C169        O172   1.266       .  A
Cd170       O177   2.463       .  S
Cd170       O176   2.367       .  S
Cd170       O175   2.364       .  S
Cd170       O171   2.565       .  S
Cd170       O174   2.485       .  S
Cd170       O172   2.411       .  S
C173        O177   1.268       .  A
C173        C182   1.473       .  S
O178        C181   1.273       .  A
O178       Cd183   2.529       .  S
C179        C332   1.545       .  S
C179        O188   1.268       .  A
C179        O184   1.266       .  A
O180        C186   1.273       .  A
O180       Cd183   2.523       .  S
C181        O189   1.261       .  A
C181        C207   1.462       .  S
C182        O187   1.273       .  A
C182        O185   1.269       .  A
Cd183       O190   2.386       .  S
Cd183       O189   2.343       .  S
Cd183       O188   2.481       .  S
Cd183       O184   2.497       .  S
Cd183       O187   2.481       .  S
Cd183       O185   2.438       .  S
C186        O190   1.261       .  A
O191        C194   1.271       .  A
O191       Cd196   2.551       .  S
C192        O201   1.263       .  A
C192        O197   1.273       .  A
O193        C199   1.267       .  A
O193       Cd196   2.438       .  S
C194        O202   1.266       .  A
C195        O200   1.268       .  A
C195        O198   1.264       .  A
Cd196       O203   2.415       .  S
Cd196       O202   2.373       .  S
Cd196       O201   2.369       .  S
Cd196       O197   2.529       .  S
Cd196       O200   2.529       .  S
Cd196       O198   2.431       .  S
C199        O203   1.265       .  A
C199        C212   1.453       .  S
O204        C207   1.272       .  A
O204       Cd209   2.525       .  S
C205        O214   1.257       .  A
C205        O210   1.272       .  A
O206        C212   1.267       .  A
O206       Cd209   2.436       .  S
C207        O215   1.263       .  A
C208        O213   1.270       .  A
C208        O211   1.267       .  A
Cd209       O216   2.413       .  S
Cd209       O215   2.349       .  S
Cd209       O214   2.312       .  S
Cd209       O210   2.531       .  S
Cd209       O213   2.497       .  S
Cd209       O211   2.410       .  S
C212        O216   1.266       .  A
C217        C222   1.414       .  A
C217        C546   1.421       .  A
C217        H224   1.073       .  S
C218        C336   1.578       .  S
C218        C219   1.434       .  A
C218        C545   1.424   1_554  A
C219        C220   1.386       .  A
C219        N226   1.424       .  S
C220        C549   1.397       .  A
C220        H225   1.073       .  S
C221        C335   1.561       .  S
C221        C222   1.419       .  A
C221        C548   1.399       .  A
C222        N223   1.435       .  S
N223        H227   1.045       .  S
N223        H228   1.046       .  S
N226        H229   1.039       .  S
N226        H230   1.038       .  S
C231        C236   1.415       .  A
C231        C560   1.415   1_655  A
C231        H238   1.078   1_655  S
C232        C233   1.424   1_456  A
C232        C559   1.415   1_455  A
C233        C234   1.398       .  A
C233        N240   1.428   1_655  S
C234        C235   1.408   1_554  A
C234        H239   1.081       .  S
C235        C564   1.422       .  A
C236        C563   1.423       .  A
C236        N237   1.431       .  S
N237        H241   1.044       .  S
N237        H242   1.044       .  S
N240        H243   1.046       .  S
N240        H244   1.037       .  S
C245        C246   1.407       .  A
C245        C250   1.386       .  A
C245        H252   1.077       .  S
C246        C575   1.425   1_554  A
C247        C248   1.407       .  A
C247        C574   1.425       .  A
C247        N254   1.431       .  S
C248        C249   1.417   1_655  A
C248        H253   1.084   1_655  S
C249        C578   1.432   1_455  A
C250        C577   1.435   1_655  A
C250        N251   1.440   1_655  S
N251        H255   1.026       .  S
N251        H256   1.048   1_455  S
N254        H257   1.041       .  S
N254        H258   1.042       .  S
C259        C260   1.415   1_556  A
C259        C264   1.415       .  A
C259        H266   1.076       .  S
C260        C589   1.422       .  A
C261        C262   1.392       .  A
C261        C588   1.422       .  A
C261        N268   1.432       .  S
C262        C591   1.405       .  A
C262        H267   1.079       .  S
C263        C264   1.424   1_554  A
C263        C590   1.406       .  A
C264        N265   1.433       .  S
N265        H269   1.046       .  S
N265        H270   1.043       .  S
N268        H271   1.046       .  S
N268        H272   1.046       .  S
C273        C278   1.408       .  A
C273        C602   1.411       .  A
C273        H280   1.075       .  S
C274        C275   1.427       .  A
C274        C601   1.412   1_554  A
C275        C276   1.404       .  A
C275        N282   1.433       .  S
C276        C277   1.413       .  A
C276        H281   1.075       .  S
C277        C331   1.566       .  S
C277        C606   1.425   1_554  A
C278        C605   1.426       .  A
C278        N279   1.430       .  S
N279        H283   1.046       .  S
N279        H284   1.046       .  S
N282        H285   1.046       .  S
N282        H286   1.045       .  S
C287        C288   1.416   1_544  A
C287        C292   1.408       .  A
C287        H294   1.076   1_545  S
C288        C617   1.433   1_565  A
C289        C290   1.403       .  A
C289        C616   1.433   1_545  A
C289        N296   1.429   1_545  S
C290        C619   1.404       .  A
C290        H295   1.082       .  S
C291        C331   1.566       .  S
C291        C292   1.419       .  A
C291        C618   1.404   1_554  A
C292        N293   1.430       .  S
N293        H297   1.045       .  S
N293        H298   1.042       .  S
N296        H299   1.046   1_565  S
N296        H300   1.039   1_565  S
C301        C306   1.400       .  A
C301        C630   1.407   1_545  A
C301        H308   1.076   1_545  S
C302        C303   1.425   1_565  A
C302        C629   1.406   1_565  A
C303        C304   1.398       .  A
C303        N310   1.428   1_545  S
C304        C305   1.414       .  A
C304        H309   1.073       .  S
C305        C634   1.429       .  A
C306        C633   1.429       .  A
C306        N307   1.430       .  S
N307        H311   1.038       .  S
N307        H312   1.045       .  S
N310        H313   1.044       .  S
N310        H314   1.032       .  S
C315        C320   1.395       .  A
C315        C644   1.403       .  A
C315        H322   1.070       .  S
C316        C317   1.430   1_556  A
C316        C643   1.403       .  A
C317        C318   1.416       .  A
C317        N324   1.435       .  S
C318        C319   1.413   1_554  A
C318        H323   1.082       .  S
C319        C648   1.420       .  A
C320        C647   1.420       .  A
C320        N321   1.435       .  S
N321        H325   1.046       .  S
N321        H326   1.046       .  S
N324        H327   1.043       .  S
N324        H328   1.045       .  S
C329        C483   1.530       .  S
C329        C630   1.572       .  S
C329        C647   1.551       .  S
C330        C366   1.554       .  S
C330        C616   1.585       .  S
C330        C644   1.568       .  S
C331        C403   1.549   1_554  S
C332        C533   1.539       .  S
C332        C602   1.575       .  S
C332        C633   1.579       .  S
C333        C522   1.541       .  S
C333        C574   1.570       .  S
C333        C588   1.560       .  S
C334        C468   1.544       .  S
C334        C563   1.573       .  S
C334        C591   1.563       .  S
C335        C377   1.548       .  S
C335        C560   1.579       .  S
C336        C390   1.554   1_554  S
C336        C577   1.569       .  S
O337        C340   1.272       .  A
O337       Cd342   2.545       .  S
C338        O347   1.264       .  A
C338        O343   1.272       .  A
O339        C345   1.269   1_565  A
O339       Cd342   2.513       .  S
C340        O348   1.264       .  A
C340        C364   1.472       .  S
C341        O346   1.266       .  A
C341        O344   1.265       .  A
C341        C358   1.466       .  S
Cd342       O349   2.423       .  S
Cd342       O348   2.392       .  S
Cd342       O347   2.400       .  S
Cd342       O343   2.557       .  S
Cd342       O346   2.475       .  S
Cd342       O344   2.457       .  S
C345        O349   1.265   1_545  A
C345        C406   1.470       .  S
O350        C353   1.274       .  A
O350       Cd355   2.549       .  S
C351        O360   1.267       .  A
C351        O356   1.268       .  A
O352        C358   1.271       .  A
O352       Cd355   2.450       .  S
C353        O361   1.262       .  A
C353        C379   1.473       .  S
C354        O359   1.270   1_655  A
C354        O357   1.261   1_655  A
C354        C449   1.456       .  S
Cd355       O362   2.437       .  S
Cd355       O361   2.387       .  S
Cd355       O360   2.447       .  S
Cd355       O356   2.506       .  S
Cd355       O359   2.501       .  S
Cd355       O357   2.368       .  S
C358        O362   1.271       .  A
O363        C366   1.271       .  A
O363       Cd368   2.528       .  S
C364        O373   1.262       .  A
C364        O369   1.275       .  A
O365        C371   1.268   1_565  A
O365       Cd368   2.479       .  S
C366        O374   1.266       .  A
C367        O372   1.268       .  A
C367        O370   1.271       .  A
C367        C380   1.465       .  S
Cd368       O375   2.395       .  S
Cd368       O374   2.430       .  S
Cd368       O373   2.374       .  S
Cd368       O369   2.546       .  S
Cd368       O372   2.442       .  S
Cd368       O370   2.445       .  S
C371        O375   1.262   1_545  A
C371        C436   1.455       .  S
O376        C379   1.273       .  A
O376       Cd381   2.544       .  S
C377        O386   1.265       .  A
C377        O382   1.272       .  A
O378        C384   1.271   1_455  A
O378       Cd381   2.526       .  S
C379        O387   1.264       .  A
C380        O385   1.269       .  A
C380        O383   1.264       .  A
Cd381       O388   2.429       .  S
Cd381       O387   2.393       .  S
Cd381       O386   2.425       .  S
Cd381       O382   2.538       .  S
Cd381       O385   2.468       .  S
Cd381       O383   2.448       .  S
C384        O388   1.264   1_655  A
C384        C471   1.474       .  S
O389        C392   1.274       .  A
O389       Cd394   2.562       .  S
C390        O399   1.265       .  A
C390        O395   1.272       .  A
O391        C397   1.272   1_455  A
O391       Cd394   2.476       .  S
C392        O400   1.263       .  A
C392        C418   1.477       .  S
C393        O398   1.269       .  A
C393        O396   1.267       .  A
C393        C410   1.469       .  S
Cd394       O401   2.404       .  S
Cd394       O400   2.392       .  S
Cd394       O399   2.427       .  S
Cd394       O395   2.535       .  S
Cd394       O398   2.476       .  S
Cd394       O396   2.448       .  S
C397        O401   1.267   1_655  A
C397        C497   1.462       .  S
O402        C405   1.273       .  A
O402       Cd407   2.554       .  S
C403        O412   1.264       .  A
C403        O408   1.271       .  A
O404        C410   1.267       .  A
O404       Cd407   2.479       .  S
C405        O413   1.263       .  A
C405        C431   1.474       .  S
C406        O411   1.270       .  A
C406        O409   1.265       .  A
Cd407       O414   2.459       .  S
Cd407       O413   2.390       .  S
Cd407       O412   2.404       .  S
Cd407       O408   2.571       .  S
Cd407       O411   2.511       .  S
Cd407       O409   2.424       .  S
C410        O414   1.266       .  A
O415        C418   1.273       .  A
O415       Cd420   2.558       .  S
C416        O425   1.265       .  A
C416        O421   1.270       .  A
O417        C423   1.266       .  A
O417       Cd420   2.446       .  S
C418        O426   1.264       .  A
C419        O424   1.268   1_655  A
C419        O422   1.264   1_655  A
C419        C523   1.471       .  S
Cd420       O427   2.425       .  S
Cd420       O426   2.396       .  S
Cd420       O425   2.395       .  S
Cd420       O421   2.574       .  S
Cd420       O424   2.524       .  S
Cd420       O422   2.434       .  S
C423        O427   1.265       .  A
C423        C432   1.456       .  S
O428        C431   1.274       .  A
O428       Cd433   2.550       .  S
C429        O438   1.263       .  A
C429        O434   1.274       .  A
O430        C436   1.269       .  A
O430       Cd433   2.465       .  S
C431        O439   1.263       .  A
C432        O437   1.266       .  A
C432        O435   1.267       .  A
Cd433       O440   2.388       .  S
Cd433       O439   2.387       .  S
Cd433       O438   2.400       .  S
Cd433       O434   2.550       .  S
Cd433       O437   2.443       .  S
Cd433       O435   2.425       .  S
C436        O440   1.265       .  A
O441        C444   1.274       .  A
O441       Cd446   2.534       .  S
C442        O451   1.264       .  A
C442        O447   1.271       .  A
O443        C449   1.268       .  A
O443       Cd446   2.493       .  S
C444        O452   1.263       .  A
C444        C470   1.468       .  S
C445        O450   1.267       .  A
C445        O448   1.268       .  A
C445        C462   1.465       .  S
Cd446       O453   2.377       .  S
Cd446       O452   2.371       .  S
Cd446       O451   2.365       .  S
Cd446       O447   2.542       .  S
Cd446       O450   2.446       .  S
Cd446       O448   2.459       .  S
C449        O453   1.263       .  A
O454        C457   1.272       .  A
O454       Cd459   2.534       .  S
C455        O464   1.263       .  A
C455        O460   1.273       .  A
O456        C462   1.267       .  A
O456       Cd459   2.456       .  S
C457        O465   1.262       .  A
C457        C481   1.464       .  S
C458        O463   1.270       .  A
C458        O461   1.265       .  A
C458        C514   1.467   1_565  S
Cd459       O466   2.461       .  S
Cd459       O465   2.359       .  S
Cd459       O464   2.377       .  S
Cd459       O460   2.525       .  S
Cd459       O463   2.516       .  S
Cd459       O461   2.405       .  S
C462        O466   1.267       .  A
O467        C470   1.272       .  A
O467       Cd472   2.535       .  S
C468        O477   1.265       .  A
C468        O473   1.273       .  A
O469        C475   1.268       .  A
O469       Cd472   2.483       .  S
C470        O478   1.263       .  A
C471        O476   1.270       .  A
C471        O474   1.265       .  A
Cd472       O479   2.470       .  S
Cd472       O478   2.377       .  S
Cd472       O477   2.392       .  S
Cd472       O473   2.552       .  S
Cd472       O476   2.527       .  S
Cd472       O474   2.430       .  S
C475        O479   1.266       .  A
C475        C488   1.472       .  S
O480        C483   1.269       .  A
O480       Cd485   2.503       .  S
C481        O490   1.261       .  A
C481        O486   1.273       .  A
O482        C488   1.270       .  A
O482       Cd485   2.466       .  S
C483        O491   1.265       .  A
C484        O489   1.270   1_545  A
C484        O487   1.262   1_545  A
C484        C536   1.467       .  S
Cd485       O492   2.455       .  S
Cd485       O491   2.424       .  S
Cd485       O490   2.353       .  S
Cd485       O486   2.541       .  S
Cd485       O489   2.514       .  S
Cd485       O487   2.418       .  S
C488        O492   1.270       .  A
O493        C496   1.273       .  A
O493       Cd498   2.537       .  S
C494        O503   1.264       .  A
C494        O499   1.272       .  A
O495        C501   1.268       .  A
O495       Cd498   2.485       .  S
C496        O504   1.263       .  A
C496        C520   1.467       .  S
C497        O502   1.271       .  A
C497        O500   1.266       .  A
Cd498       O505   2.463       .  S
Cd498       O504   2.368       .  S
Cd498       O503   2.367       .  S
Cd498       O499   2.558       .  S
Cd498       O502   2.478       .  S
Cd498       O500   2.406       .  S
C501        O505   1.268       .  A
C501        C510   1.472       .  S
O506        C509   1.273       .  A
O506       Cd511   2.531       .  S
C507        O516   1.267       .  A
C507        O512   1.266       .  A
O508        C514   1.273       .  A
O508       Cd511   2.524       .  S
C509        O517   1.261       .  A
C509        C535   1.461       .  S
C510        O515   1.273       .  A
C510        O513   1.270       .  A
Cd511       O518   2.392       .  S
Cd511       O517   2.341       .  S
Cd511       O516   2.479       .  S
Cd511       O512   2.490       .  S
Cd511       O515   2.477       .  S
Cd511       O513   2.438       .  S
C514        O518   1.261       .  A
O519        C522   1.271       .  A
O519       Cd524   2.548       .  S
C520        O529   1.263       .  A
C520        O525   1.273       .  A
O521        C527   1.266       .  A
O521       Cd524   2.438       .  S
C522        O530   1.266       .  A
C523        O528   1.268       .  A
C523        O526   1.264       .  A
Cd524       O531   2.419       .  S
Cd524       O530   2.371       .  S
Cd524       O529   2.369       .  S
Cd524       O525   2.533       .  S
Cd524       O528   2.526       .  S
Cd524       O526   2.432       .  S
C527        O531   1.265       .  A
C527        C540   1.454       .  S
O532        C535   1.273       .  A
O532       Cd537   2.524       .  S
C533        O542   1.257       .  A
C533        O538   1.272       .  A
O534        C540   1.267       .  A
O534       Cd537   2.436       .  S
C535        O543   1.263       .  A
C536        O541   1.270       .  A
C536        O539   1.267       .  A
Cd537       O544   2.416       .  S
Cd537       O543   2.348       .  S
Cd537       O542   2.311       .  S
Cd537       O538   2.523       .  S
Cd537       O541   2.495       .  S
Cd537       O539   2.416       .  S
C540        O544   1.266       .  A
C545        C550   1.416       .  A
C545        H552   1.067       .  S
C546        C547   1.431       .  A
C547        C548   1.386       .  A
C547        N554   1.424       .  S
C548        H553   1.074       .  S
C549        C550   1.415   1_554  A
C550        N551   1.435       .  S
N551        H555   1.045       .  S
N551        H556   1.046       .  S
N554        H557   1.040       .  S
N554        H558   1.038       .  S
C559        C564   1.416       .  A
C559        H566   1.078   1_655  S
C560        C561   1.424   1_455  A
C561        C562   1.399       .  A
C561        N568   1.429   1_655  S
C562        C563   1.408       .  A
C562        H567   1.081       .  S
C564        N565   1.430       .  S
N565        H569   1.043       .  S
N565        H570   1.043       .  S
N568        H571   1.046       .  S
N568        H572   1.038       .  S
C573        C574   1.408       .  A
C573        C578   1.386       .  A
C573        H580   1.076       .  S
C575        C576   1.408       .  A
C575        N582   1.431       .  S
C576        C577   1.417   1_656  A
C576        H581   1.084   1_655  S
C578        N579   1.439   1_655  S
N579        H583   1.028       .  S
N579        H584   1.047   1_455  S
N582        H585   1.041       .  S
N582        H586   1.042       .  S
C587        C588   1.415       .  A
C587        C592   1.415       .  A
C587        H594   1.076       .  S
C589        C590   1.393       .  A
C589        N596   1.432       .  S
C590        H595   1.079       .  S
C591        C592   1.424       .  A
C592        N593   1.432       .  S
N593        H597   1.046       .  S
N593        H598   1.043       .  S
N596        H599   1.046       .  S
N596        H600   1.046       .  S
C601        C606   1.408       .  A
C601        H608   1.075       .  S
C602        C603   1.428       .  A
C603        C604   1.403       .  A
C603        N610   1.433       .  S
C604        C605   1.412       .  A
C604        H609   1.075       .  S
C606        N607   1.430       .  S
N607        H611   1.046       .  S
N607        H612   1.046       .  S
N610        H613   1.046       .  S
N610        H614   1.045       .  S
C615        C616   1.415   1_545  A
C615        C620   1.407       .  A
C615        H622   1.076   1_545  S
C617        C618   1.404       .  A
C617        N624   1.429   1_545  S
C618        H623   1.082       .  S
C619        C620   1.418       .  A
C620        N621   1.430       .  S
N621        H625   1.045       .  S
N621        H626   1.042       .  S
N624        H627   1.046   1_565  S
N624        H628   1.039   1_565  S
C629        C634   1.400       .  A
C629        H636   1.076   1_545  S
C630        C631   1.424   1_565  A
C631        C632   1.398       .  A
C631        N638   1.429   1_545  S
C632        C633   1.415       .  A
C632        H637   1.073       .  S
C634        N635   1.430   1_554  S
N635        H639   1.038       .  S
N635        H640   1.045   1_556  S
N638        H641   1.044       .  S
N638        H642   1.032       .  S
C643        C648   1.396       .  A
C643        H650   1.070       .  S
C644        C645   1.429       .  A
C645        C646   1.417       .  A
C645        N652   1.435       .  S
C646        C647   1.414       .  A
C646        H651   1.082       .  S
C648        N649   1.435       .  S
N649        H653   1.046       .  S
N649        H654   1.046       .  S
N652        H655   1.043       .  S
N652        H656   1.045       .  S
