geometry optimzed in LAMMPS
_audit_creation_date              2020-11-30 
_audit_creation_method            'lammps2cif' 
_symmetry_space_group_name_H-M    'P1' 
_symmetry_Int_Tables_number       1 
_symmetry_cell_setting            triclinic 
loop_ 
_symmetry_equiv_pos_as_xyz 
  x,y,z 
_cell_length_a                    40.79762069 
_cell_length_b                    40.518472849057005 
_cell_length_c                    40.71644000094432 
_cell_angle_alpha                 89.64601936722133 
_cell_angle_beta                  89.35163037889494 
_cell_angle_gamma                 90.05187804467383 
loop_ 
_atom_site_label 
_atom_site_type_symbol 
_atom_site_fract_x 
_atom_site_fract_y 
_atom_site_fract_z 
_atom_site_charge 
O1          O  0.52672811  0.03718482  0.85830593    -0.80700
O2          O  0.53036690  0.04983415  0.67103971    -0.82300
O3          O  0.59542392  0.03478631  0.76393839    -0.79300
O4          O  0.51614368  0.10948844  0.77223686    -0.77700
O5          O  0.46014539  0.10666352  0.77080133    -0.79500
O6          O  0.59674319  0.97831302  0.76536931    -0.80400
O7          O  0.55361393  0.07794071  0.71337249    -0.81700
O8          O  0.55562451  0.06802191  0.82066195    -0.82000
Eu9        Eu  0.53721414  0.05254417  0.76604114     2.39200
O10         O  0.49089950  0.05211865  0.73228947    -0.89500
O11         O  0.53771406  0.00390162  0.79794126    -0.93100
C12         C  0.54838691  0.05923272  0.85034923     1.01600
C13         C  0.54846077  0.07327251  0.68249876     1.01400
C14         C  0.61078825  0.00682042  0.76420394     1.01300
C15         C  0.48732244  0.12278296  0.77318337     0.99200
H16         H  0.55990419  0.00796475  0.71722136     0.28900
O17         O  0.54024123  0.00678755  0.73056686    -1.01900
H18         H  0.48802168  0.06729592  0.81388281     0.29000
O19         O  0.48916007  0.04895842  0.79883237    -1.04500
O20         O  0.45750074  0.96846310  0.66656328    -0.81700
O21         O  0.44922816  0.96113998  0.85450238    -0.81200
O22         O  0.55958311  0.94016774  0.70911251    -0.79700
O23         O  0.42637636  0.07271948  0.71235425    -0.83000
O24         O  0.41891754  0.06143902  0.81971106    -0.80900
O25         O  0.55826901  0.93699040  0.81751416    -0.79500
O26         O  0.46745193  0.89781946  0.75880039    -0.81000
O27         O  0.38841383  0.97212901  0.75745288    -0.83000
O28         O  0.52341164  0.90053715  0.75983435    -0.79700
O29         O  0.38659140  0.02859666  0.75841433    -0.82400
O30         O  0.53237009  0.96799456  0.66861056    -0.78100
O31         O  0.52588506  0.96131750  0.85655402    -0.78100
O32         O  0.44910101  0.03326227  0.85748876    -0.77800
O33         O  0.45666955  0.04856044  0.67122156    -0.81300
O34         O  0.42995320  0.93785667  0.70555872    -0.80700
O35         O  0.42443703  0.93364302  0.81257504    -0.79000
Eu36       Eu  0.49413170  0.00713094  0.69588603     2.39800
Eu37       Eu  0.48932373  0.99974277  0.82947498     2.39600
Eu38       Eu  0.54026091  0.95820036  0.76321467     2.38400
Eu39       Eu  0.44290861  0.04900247  0.76500620     2.39900
Eu40       Eu  0.44631807  0.95483158  0.76025993     2.39800
O41         O  0.44299037  0.99997691  0.79587036    -0.93400
O42         O  0.49456975  0.95887870  0.72852517    -0.92300
C43         C  0.43648932  0.94612178  0.67558553     1.01700
C44         C  0.42864009  0.93986249  0.84327001     1.00400
C45         C  0.55327926  0.94623889  0.67867442     0.99800
C46         C  0.43460471  0.06889230  0.68195793     1.01800
C47         C  0.42576269  0.05288892  0.84953595     1.00800
C48         C  0.54904801  0.94166955  0.84767199     0.99600
C49         C  0.49620158  0.88439850  0.75902268     0.99700
C50         C  0.37299047  0.99993660  0.75597686     1.02300
H51         H  0.49196400  0.93382611  0.80794842     0.29700
O52         O  0.49199212  0.95386031  0.79496280    -1.05600
H53         H  0.42749794  0.00412153  0.71447897     0.31700
O54         O  0.44619969  0.00386495  0.72877760    -1.08200
C55         C  0.68106368  0.20301992  0.51271281     0.85900
C56         C  0.66321742  0.18626229  0.54207572    -0.54300
C57         C  0.63065866  0.18061433  0.53713911     0.08800
C58         C  0.61855726  0.19289950  0.50350998     0.19800
C59         C  0.67350329  0.18048240  0.48325366    -0.55100
C60         C  0.64066611  0.17531187  0.47798847     0.08900
C61         C  0.66134489  0.23443828  0.50617642    -0.54600
C62         C  0.62882486  0.22935024  0.50101635     0.09500
H63         H  0.67497342  0.17735695  0.56408674     0.14000
H64         H  0.59186985  0.18969039  0.50024643    -0.00300
H65         H  0.69270794  0.16993432  0.46797205     0.14300
H66         H  0.67242383  0.25883365  0.50538590     0.14100
O67         O  0.51818665  0.05136529  0.35373208    -0.80700
O68         O  0.53590300  0.04236830  0.16764168    -0.82300
O69         O  0.59053256  0.04119090  0.27007431    -0.79300
O70         O  0.51009913  0.11193629  0.25021611    -0.77700
O71         O  0.45410517  0.10795462  0.24912618    -0.79500
O72         O  0.59518694  0.98495047  0.27175915    -0.80400
O73         O  0.55903794  0.07222609  0.20889078    -0.81700
O74         O  0.54737138  0.08022209  0.31478987    -0.82000
Eu75       Eu  0.53303783  0.05672136  0.26096262     2.39200
O76         O  0.48855292  0.05188248  0.22470364    -0.89500
O77         O  0.53401638  0.01098502  0.29639851    -0.93100
C78         C  0.53887961  0.07387662  0.34485162     1.01600
C79         C  0.55637488  0.06424117  0.17843964     1.01400
C80         C  0.60728287  0.01436647  0.27342088     1.01300
C81         C  0.48116069  0.12440607  0.24691002     0.99200
H82         H  0.55955105  0.00857915  0.21829269     0.28900
O83         O  0.53890294  0.00801167  0.23022542    -1.01900
H84         H  0.48113258  0.07584192  0.30343357     0.29000
O85         O  0.48346768  0.05567989  0.29111324    -1.04500
O86         O  0.46078340  0.96113244  0.16612068    -0.81700
O87         O  0.44996800  0.96927235  0.35376577    -0.81200
O88         O  0.56493656  0.94286619  0.21508053    -0.79700
O89         O  0.42077038  0.06288222  0.19916413    -0.83000
O90         O  0.41369725  0.07057560  0.30632327    -0.80900
O91         O  0.55435732  0.94623478  0.32226161    -0.79500
O92         O  0.46965976  0.89965833  0.25452385    -0.81000
O93         O  0.38753309  0.96957480  0.26073704    -0.83000
O94         O  0.52527090  0.90306506  0.26030155    -0.79700
O95         O  0.38298567  0.02575807  0.25826330    -0.82400
O96         O  0.53734693  0.96584465  0.17199313    -0.78100
O97         O  0.52368727  0.97597551  0.35889536    -0.78100
O98         O  0.44126536  0.04599506  0.34851050    -0.77800
O99         O  0.45441592  0.03673371  0.16223306    -0.81300
O100        O  0.43206781  0.93414672  0.20681463    -0.80700
O101        O  0.42838023  0.93450704  0.31565082    -0.79000
Eu102      Eu  0.49484272  0.00366648  0.19326314     2.39800
Eu103      Eu  0.48491868  0.00962819  0.32661658     2.39600
Eu104      Eu  0.53960402  0.96214148  0.26601858     2.38400
Eu105      Eu  0.43884889  0.04960053  0.25513479     2.39900
Eu106      Eu  0.44625167  0.95534756  0.26078852     2.39800
O107        O  0.44040559  0.00412577  0.29107630    -0.93400
O108        O  0.49523727  0.95868633  0.23012902    -0.92300
C109        C  0.43981160  0.93925741  0.17641182     1.01700
C110        C  0.43295738  0.94391652  0.34561352     1.00400
C111        C  0.55985749  0.94708153  0.18415103     0.99800
C112        C  0.42974937  0.05550918  0.16958356     1.01800
C113        C  0.41887348  0.06547298  0.33721130     1.00800
C114        C  0.54603748  0.95444417  0.35180186     0.99600
C115        C  0.49862066  0.88678947  0.25476783     0.99700
C116        C  0.37050216  0.99646437  0.26074414     1.02300
H117        H  0.49133693  0.94081255  0.31123560     0.29700
O118        O  0.49065203  0.95989758  0.29681394    -1.05600
H119        H  0.42682163  0.99872530  0.21010234     0.31700
O120        O  0.44529848  0.00097671  0.22444929    -1.08200
C121        C  0.29782940  0.81501571  0.01403331     0.85900
C122        C  0.30653836  0.83195233  0.98135831    -0.54300
C123        C  0.30885112  0.86579219  0.98262121     0.08800
C124        C  0.29994713  0.87923899  0.01735728     0.19800
C125        C  0.32369100  0.82822088  0.03799707    -0.55100
C126        C  0.32479938  0.86189666  0.03975426     0.08900
C127        C  0.26578736  0.83056362  0.02498707    -0.54600
C128        C  0.26632753  0.86394665  0.02723405     0.09500
H129        H  0.31239132  0.81726103  0.96002684     0.14000
H130        H  0.30019805  0.90633493  0.02012365    -0.00300
H131        H  0.34099864  0.81297404  0.05112978     0.14300
H132        H  0.24397735  0.81587789  0.02998524     0.14100
C133        C  0.68941612  0.81663271  0.01542781     0.85900
C134        C  0.66827085  0.83263614  0.04258486    -0.54300
C135        C  0.66360604  0.86584976  0.03858420     0.08800
C136        C  0.68002152  0.88005377  0.00740892     0.19800
C137        C  0.67160924  0.82572738  0.98346853    -0.55100
C138        C  0.66676231  0.85883168  0.97937976     0.08900
C139        C  0.72096127  0.83713386  0.01435001    -0.54600
C140        C  0.71610106  0.87013206  0.01011781     0.09500
H141        H  0.65654807  0.81923109  0.06251030     0.14000
H142        H  0.67659398  0.90697006  0.00355373    -0.00300
H143        H  0.66333746  0.80763824  0.96580563     0.14300
H144        H  0.74528389  0.82631251  0.01564688     0.14100
C145        C  0.68283346  0.81271421  0.51047578     0.85900
C146        C  0.67293981  0.82915142  0.47790444    -0.54300
C147        C  0.63981755  0.83309898  0.47438947     0.08800
C148        C  0.61935227  0.81910546  0.50336165     0.19800
C149        C  0.66580267  0.83437801  0.53671296    -0.55100
C150        C  0.63243756  0.83732968  0.53373143     0.08900
C151        C  0.66395149  0.78008128  0.51154970    -0.54600
C152        C  0.63098865  0.78319622  0.50748930     0.09500
H153        H  0.69068398  0.83856928  0.46010125     0.14000
H154        H  0.59251909  0.82095343  0.49982709    -0.00300
H155        H  0.67901504  0.84821850  0.55479639     0.14300
H156        H  0.67577390  0.75630013  0.51497710     0.14100
C157        C  0.29399950  0.19787421  0.00783744     0.85900
C158        C  0.31321163  0.18670084  0.03851537    -0.54300
C159        C  0.31801461  0.15322089  0.04069001     0.08800
C160        C  0.30359961  0.13410295  0.01148179     0.19800
C161        C  0.31367320  0.18376668  0.97898136    -0.55100
C162        C  0.31813121  0.15051090  0.98042818     0.08900
C163        C  0.26242789  0.17740734  0.00933207    -0.54600
C164        C  0.26749605  0.14423784  0.01117772     0.09500
H165        H  0.32285704  0.20325297  0.05675390     0.14000
H166        H  0.30691912  0.10693219  0.01258173    -0.00300
H167        H  0.32234901  0.19871730  0.95840337     0.14300
H168        H  0.23806622  0.18821635  0.00883123     0.14100
C169        C  0.68720558  0.19776947  0.00936436     0.85900
C170        C  0.66659870  0.18969019  0.97921363    -0.54300
C171        C  0.66252794  0.15677233  0.97404761     0.08800
C172        C  0.67966395  0.13460943  0.99963714     0.19800
C173        C  0.66975324  0.17936464  0.03784429    -0.55100
C174        C  0.66567494  0.14612773  0.03325097     0.08900
C175        C  0.71944654  0.17902459  0.00413008    -0.54600
C176        C  0.71580846  0.14610098  0.99848799     0.09500
H177        H  0.65571733  0.20847780  0.96361869     0.14000
H178        H  0.67700059  0.10791658  0.99464179    -0.00300
H179        H  0.65966396  0.19161932  0.05901612     0.14300
H180        H  0.74324583  0.19105703  0.00449058     0.14100
C181        C  0.29664997  0.19577313  0.51649893     0.85900
C182        C  0.30870629  0.17316328  0.48858745    -0.54300
C183        C  0.34216482  0.17087239  0.48574441     0.08800
C184        C  0.36057335  0.19191271  0.51138693     0.19800
C185        C  0.31367306  0.18176107  0.54741873    -0.55100
C186        C  0.34718365  0.17962880  0.54485702     0.08900
C187        C  0.31368078  0.22877848  0.51005068    -0.54600
C188        C  0.34687687  0.22707839  0.50727921     0.09500
H189        H  0.29204595  0.15955264  0.47307932     0.14000
H190        H  0.38763784  0.19091498  0.50884734    -0.00300
H191        H  0.30083753  0.17356166  0.56933909     0.14300
H192        H  0.30036707  0.25191309  0.50797992     0.14100
C193        C  0.30056869  0.81790367  0.51055804     0.85900
C194        C  0.31743773  0.84152590  0.53469040    -0.54300
C195        C  0.35102812  0.83926731  0.53508230     0.08800
C196        C  0.36443891  0.81369935  0.51023419     0.19800
C197        C  0.31642214  0.82635705  0.47738414    -0.55100
C198        C  0.34969832  0.82419138  0.47695515     0.08900
C199        C  0.31352084  0.78366786  0.51926606    -0.54600
C200        C  0.34688023  0.78096373  0.51952948     0.09500
H201        H  0.30415309  0.85968112  0.54888256     0.14000
H202        H  0.39144903  0.81170812  0.50951968    -0.00300
H203        H  0.30261913  0.83533864  0.45648131     0.14300
H204        H  0.29707254  0.76306710  0.52394452     0.14100
O205        O  0.88915645  0.76719876  0.52963678    -0.80700
O206        O  0.02091564  0.75136533  0.39717910    -0.82300
O207        O  0.92395999  0.80547182  0.43278203    -0.79300
O208        O  0.92904764  0.69830348  0.44188238    -0.77700
O209        O  0.95940021  0.66152634  0.47146212    -0.79500
O210        O  0.94868825  0.84873654  0.45891493    -0.80400
O211        O  0.96535620  0.74525786  0.39821174    -0.81700
O212        O  0.88960011  0.75810375  0.47421319    -0.82000
Eu213      Eu  0.94616182  0.75449946  0.45551778     2.39200
O214        O  0.99410533  0.72351649  0.45757413    -0.89500
O215        O  0.94446662  0.79121091  0.50033826    -0.93100
C216        C  0.87475138  0.76441020  0.50152025     1.01600
C217        C  0.99357855  0.74485269  0.38334898     1.01400
C218        C  0.92843762  0.83643270  0.43812988     1.01300
C219        C  0.93729626  0.66868126  0.45013592     0.99200
H220        H  0.98889630  0.80363893  0.43151981     0.28900
O221        O  0.99018159  0.79146193  0.45189258    -1.01900
H222        H  0.92763812  0.71161375  0.50678274     0.29000
O223        O  0.94680199  0.72556538  0.50576566    -1.04500
O224        O  0.09556189  0.76850095  0.46567216    -0.81700
O225        O  0.96979661  0.76103282  0.60609286    -0.81200
O226        O  0.02374429  0.85422586  0.45760974    -0.79700
O227        O  0.03374824  0.66692451  0.46945557    -0.83000
O228        O  0.95421461  0.66850652  0.54617499    -0.80900
O229        O  0.95216034  0.85526075  0.53714179    -0.79500
O230        O  0.05748794  0.82176053  0.56246383    -0.81000
O231        O  0.06606138  0.71353237  0.56508328    -0.83000
O232        O  0.02620027  0.85834387  0.53353593    -0.79700
O233        O  0.03651121  0.67046517  0.54445868    -0.82400
O234        O  0.05124716  0.81496387  0.42816650    -0.78100
O235        O  0.92761492  0.81704975  0.57072697    -0.78100
O236        O  0.92568217  0.71009566  0.57137075    -0.77800
O237        O  0.05961330  0.70549181  0.43690712    -0.81300
O238        O  0.09710394  0.77426912  0.52139517    -0.80700
O239        O  0.02579707  0.76471495  0.60319262    -0.79000
Eu240      Eu  0.03846622  0.76024414  0.45273944     2.39800
Eu241      Eu  0.94633841  0.76269185  0.55036879     2.39600
Eu242      Eu  0.98907353  0.82710565  0.49791254     2.38400
Eu243      Eu  0.99509349  0.69376542  0.50736935     2.39900
Eu244      Eu  0.04175107  0.76588873  0.54560933     2.39800
O245        O  0.99523806  0.73131593  0.55097232    -0.93400
O246        O  0.03817665  0.79682938  0.49714119    -0.92300
C247        C  0.11069722  0.77427433  0.49252426     1.01700
C248        C  0.99856184  0.76169945  0.61920450     1.00400
C249        C  0.04326521  0.84522927  0.43434170     0.99800
C250        C  0.05443752  0.67551133  0.44670833     1.01800
C251        C  0.93155935  0.67933445  0.56596641     1.00800
C252        C  0.93318142  0.84717969  0.56155950     0.99600
C253        C  0.04829454  0.85133297  0.55497876     0.99700
C254        C  0.06012966  0.68235612  0.56167561     1.02300
H255        H  0.99289205  0.81138957  0.56551541     0.29700
O256        O  0.99274803  0.79684830  0.54685186    -1.05600
H257        H  0.06152012  0.71655534  0.50149271     0.31700
O258        O  0.04127538  0.72911331  0.50165753    -1.08200
O259        O  0.88401323  0.26092259  0.52527487    -0.80700
O260        O  0.01496893  0.26149519  0.39132264    -0.82300
O261        O  0.92319601  0.31982890  0.43369035    -0.79300
O262        O  0.91919223  0.21115632  0.42998837    -0.77700
O263        O  0.94433176  0.16882297  0.45742241    -0.79500
O264        O  0.95640942  0.35666433  0.45956328    -0.80400
O265        O  0.95902564  0.26452911  0.39339661    -0.81700
O266        O  0.88421104  0.26294944  0.46920942    -0.82000
Eu267      Eu  0.94129429  0.26366576  0.45009575     2.39200
O268        O  0.98598833  0.22669553  0.44889556    -0.89500
O269        O  0.94423589  0.29706348  0.49651902    -0.93100
C270        C  0.86939097  0.26067107  0.49727478     1.01600
C271        C  0.98653482  0.26418601  0.37774669     1.01400
C272        C  0.93241331  0.34962031  0.44034798     1.01300
C273        C  0.92376263  0.18022792  0.43629730     0.99200
H274        H  0.99164837  0.30840915  0.42898816     0.28900
O275        O  0.99072536  0.29402742  0.44818566    -1.01900
H276        H  0.91975459  0.21601551  0.49685560     0.29000
O277        O  0.93963045  0.22882224  0.49645140    -1.04500
O278        O  0.09209666  0.24946042  0.46626164    -0.81700
O279        O  0.95858477  0.26343782  0.59998004    -0.81200
O280        O  0.03574028  0.35144552  0.45828421    -0.79700
O281        O  0.02212178  0.16399693  0.45581045    -0.83000
O282        O  0.94592319  0.16765004  0.53735456    -0.80900
O283        O  0.95740107  0.35662139  0.53142166    -0.79500
O284        O  0.06237489  0.30869807  0.55927156    -0.81000
O285        O  0.04794119  0.19864339  0.56426785    -0.83000
O286        O  0.03549243  0.34960656  0.53142704    -0.79700
O287        O  0.01904343  0.16130515  0.53409437    -0.82400
O288        O  0.06059517  0.30921702  0.43081170    -0.78100
O289        O  0.92462136  0.31909362  0.55821314    -0.78100
O290        O  0.92113188  0.21020023  0.56472051    -0.77800
O291        O  0.05113748  0.20383588  0.42795796    -0.81300
O292        O  0.09257228  0.24745491  0.52246636    -0.80700
O293        O  0.01473546  0.26177129  0.60068408    -0.79000
Eu294      Eu  0.03508756  0.25724018  0.44845574     2.39800
Eu295      Eu  0.94172330  0.26274553  0.54290366     2.39600
Eu296      Eu  0.99425657  0.32620402  0.49537616     2.38400
Eu297      Eu  0.98430978  0.19204655  0.49570152     2.39900
Eu298      Eu  0.03602697  0.25557176  0.54363139     2.39800
O299        O  0.98641786  0.22588555  0.54266123    -0.93400
O300        O  0.03849003  0.28924926  0.49604490    -0.92300
C301        C  0.10690434  0.24592721  0.49396385     1.01700
C302        C  0.98623049  0.26408703  0.61487026     1.00400
C303        C  0.05701189  0.34009103  0.43749537     0.99800
C304        C  0.04400632  0.17357279  0.43438675     1.01800
C305        C  0.92598189  0.17921473  0.55948455     1.00800
C306        C  0.93353911  0.34893542  0.55099499     0.99600
C307        C  0.05786190  0.33934348  0.55112612     0.99700
C308        C  0.03948751  0.16869274  0.55690525     1.02300
H309        H  0.99213380  0.30697186  0.56176938     0.29700
O310        O  0.99140872  0.29273295  0.54284567    -1.05600
H311        H  0.05103662  0.20771385  0.49538194     0.31700
O312        O  0.03288439  0.22314387  0.49574257    -1.08200
C313        C  0.79058623  0.51250241  0.68384407     0.85900
C314        C  0.81247687  0.48284197  0.67513005    -0.54300
C315        C  0.81628009  0.47774922  0.64217834     0.08800
C316        C  0.79813223  0.50337897  0.62080229     0.19800
C317        C  0.80704692  0.54134505  0.66582399    -0.55100
C318        C  0.81104751  0.53736949  0.63265827     0.08900
C319        C  0.75857820  0.50652345  0.66593662    -0.54600
C320        C  0.76206049  0.50111956  0.63305493     0.09500
H321        H  0.82470441  0.46763687  0.69327302     0.14000
H322        H  0.80102249  0.49888030  0.59413713    -0.00300
H323        H  0.81719824  0.56190655  0.67917486     0.14300
H324        H  0.73502356  0.50657394  0.67862342     0.14100
C325        C  0.18378024  0.50983900  0.68937797     0.85900
C326        C  0.16573712  0.53737836  0.67092013    -0.54300
C327        C  0.16487293  0.53364402  0.63753862     0.08800
C328        C  0.18213827  0.50160978  0.62564146     0.19800
C329        C  0.16662236  0.47807760  0.67882604    -0.55100
C330        C  0.16563963  0.47326349  0.64559550     0.08900
C331        C  0.21756532  0.50871127  0.67269746    -0.54600
C332        C  0.21720695  0.50331002  0.63960566     0.09500
H333        H  0.15405062  0.55804738  0.68285595     0.14000
H334        H  0.18189519  0.49812859  0.59868513    -0.00300
H335        H  0.15571619  0.46116907  0.69660189     0.14300
H336        H  0.24008098  0.51109486  0.68645295     0.14100
C337        C  0.80183262  0.00498381  0.30504872     0.85900
C338        C  0.81694545  0.97385861  0.32048860    -0.54300
C339        C  0.85036495  0.97490805  0.32378969     0.08800
C340        C  0.86547066  0.00743464  0.31083736     0.19800
C341        C  0.81386672  0.03310792  0.32728293    -0.55100
C342        C  0.84725481  0.03435035  0.33053513     0.08900
C343        C  0.82042225  0.00980236  0.27256388    -0.54600
C344        C  0.85364771  0.01095086  0.27534853     0.09500
H345        H  0.80196009  0.95305164  0.32815956     0.14000
H346        H  0.89241129  0.00945017  0.31230245    -0.00300
H347        H  0.79767795  0.04904192  0.34119529     0.14300
H348        H  0.80816035  0.01175011  0.24907733     0.14100
C349        C  0.79856492  0.01424612  0.70269084     0.85900
C350        C  0.81545814  0.04207445  0.68267069    -0.54300
C351        C  0.84828508  0.03762654  0.67660941     0.08800
C352        C  0.86117035  0.00475885  0.69137551     0.19800
C353        C  0.80631068  0.98255911  0.68318225    -0.55100
C354        C  0.83906538  0.97775715  0.67692371     0.08900
C355        C  0.81919188  0.01129550  0.73368793    -0.54600
C356        C  0.85161552  0.00521870  0.72815129     0.09500
H357        H  0.80257866  0.06305123  0.67298298     0.14000
H358        H  0.88760340  0.99989191  0.68733273    -0.00300
H359        H  0.78753306  0.96565316  0.67485721     0.14300
H360        H  0.80862105  0.01274301  0.75824793     0.14100
C361        C  0.79591985  0.51697871  0.30485427     0.85900
C362        C  0.81963890  0.54405166  0.31579094    -0.54300
C363        C  0.82604494  0.54395822  0.34869654     0.08800
C364        C  0.80899240  0.51554491  0.36768777     0.19800
C365        C  0.81226448  0.48461610  0.31664231    -0.55100
C366        C  0.81912401  0.48375938  0.34947011     0.08900
C367        C  0.76578669  0.52096281  0.32724027    -0.54600
C368        C  0.77250677  0.52019676  0.35991131     0.09500
H369        H  0.82983368  0.56227605  0.29888134     0.14000
H370        H  0.81387741  0.51507069  0.39445098    -0.00300
H371        H  0.81934235  0.46444735  0.30079170     0.14300
H372        H  0.74116020  0.52466642  0.31800816     0.14100
C373        C  0.18657201  0.50804732  0.30604238     0.85900
C374        C  0.16963522  0.47999147  0.32507598    -0.54300
C375        C  0.16699763  0.48483399  0.35825142     0.08800
C376        C  0.18188574  0.51826380  0.36914361     0.19800
C377        C  0.16642521  0.53867565  0.31504444    -0.55100
C378        C  0.16394907  0.54459605  0.34806715     0.08900
C379        C  0.21948155  0.51267237  0.32287301    -0.54600
C380        C  0.21747788  0.51852705  0.35561930     0.09500
H381        H  0.15828247  0.45922153  0.31327124     0.14000
H382        H  0.18083600  0.52249207  0.39594859    -0.00300
H383        H  0.15471649  0.55381093  0.29651231     0.14300
H384        H  0.24272059  0.51122145  0.30964992     0.14100
C385        C  0.17595304  0.00769374  0.29917291     0.85900
C386        C  0.16081100  0.03100874  0.32512689    -0.54300
C387        C  0.12715972  0.03020787  0.32714633     0.08800
C388        C  0.11203087  0.00508154  0.30345403     0.19800
C389        C  0.16250674  0.97353412  0.30896581    -0.55100
C390        C  0.12919265  0.97212129  0.31134173     0.08900
C391        C  0.15850558  0.01648961  0.26725630    -0.54600
C392        C  0.12503582  0.01540794  0.26918740     0.09500
H393        H  0.17568236  0.04651334  0.34065218     0.14000
H394        H  0.08499654  0.00362660  0.30506327    -0.00300
H395        H  0.17776015  0.95300605  0.31654572     0.14300
H396        H  0.17195745  0.02241076  0.24483902     0.14100
C397        C  0.18828159  0.01356338  0.69106368     0.85900
C398        C  0.17845429  0.98330425  0.67098335    -0.54300
C399        C  0.14539406  0.98006431  0.66629359     0.08800
C400        C  0.12496216  0.00791843  0.68237711     0.19800
C401        C  0.17260788  0.04311186  0.67292967    -0.55100
C402        C  0.13956370  0.04015461  0.66826474     0.08900
C403        C  0.16815684  0.01069464  0.72297890    -0.54600
C404        C  0.13527240  0.00749879  0.71867906     0.09500
H405        H  0.19642023  0.96622345  0.66101238     0.14000
H406        H  0.09806068  0.00564926  0.67932561    -0.00300
H407        H  0.18567755  0.06504824  0.66497258     0.14300
H408        H  0.17905331  0.01096315  0.74721080     0.14100
O409        O  0.74482073  0.61306989  0.97022164    -0.80700
O410        O  0.74217168  0.47725929  0.09884192    -0.82300
O411        O  0.69231255  0.57831929  0.05903510    -0.79300
O412        O  0.79975069  0.57254967  0.05755301    -0.77700
O413        O  0.83788698  0.54088406  0.03092258    -0.79500
O414        O  0.65101296  0.55646850  0.02840374    -0.80400
O415        O  0.74675655  0.53344744  0.10009918    -0.81700
O416        O  0.74266547  0.61187851  0.02640634    -0.82000
Eu417      Eu  0.74455320  0.55391496  0.04249671     2.39200
O418        O  0.77464846  0.50476569  0.04189346    -0.89500
O419        O  0.71309489  0.55687216  0.99441604    -0.93100
C420        C  0.74263835  0.62716024  0.99856816     1.01600
C421        C  0.74645795  0.50465999  0.11409284     1.01400
C422        C  0.66207293  0.57641764  0.05041798     1.01300
C423        C  0.82958820  0.56426189  0.05061364     0.99200
H424        H  0.69343432  0.51113615  0.06021648     0.28900
O425        O  0.70721274  0.50980046  0.04099199    -1.01900
H426        H  0.79298888  0.57299788  0.99554732     0.29000
O427        O  0.77850807  0.55412465  0.99530798    -1.04500
O428        O  0.73228322  0.40328045  0.02243073    -0.81700
O429        O  0.75210319  0.53706119  0.89037315    -0.81200
O430        O  0.64386770  0.47962760  0.03195333    -0.79700
O431        O  0.83133523  0.46376765  0.03059999    -0.83000
O432        O  0.83870740  0.54214166  0.95723174    -0.80900
O433        O  0.65436364  0.55430019  0.95190848    -0.79500
O434        O  0.68687486  0.44575379  0.92801348    -0.81000
O435        O  0.79267919  0.44051315  0.92831173    -0.83000
O436        O  0.64668306  0.47604239  0.95308206    -0.79700
O437        O  0.83415506  0.46674896  0.95487759    -0.82400
O438        O  0.68006976  0.44831285  0.06141237    -0.78100
O439        O  0.69705205  0.57951354  0.92483392    -0.78100
O440        O  0.80236026  0.57623812  0.93149096    -0.77800
O441        O  0.79147969  0.43631856  0.05987184    -0.81300
O442        O  0.73498828  0.40485915  0.96632312    -0.80700
O443        O  0.74560607  0.48108553  0.89254143    -0.79000
Eu444      Eu  0.73750932  0.46007320  0.04193252     2.39800
Eu445      Eu  0.74713998  0.55682336  0.94752902     2.39600
Eu446      Eu  0.67510977  0.51351245  0.99248454     2.38400
Eu447      Eu  0.80815008  0.50458631  0.99422042     2.39900
Eu448      Eu  0.74012742  0.46225560  0.94859283     2.39800
O449        O  0.77643469  0.50710910  0.94716718    -0.93400
O450        O  0.70504781  0.46372354  0.99446428    -0.92300
C451        C  0.73202616  0.38946133  0.99396497     1.01700
C452        C  0.75095276  0.50824401  0.87694040     1.00400
C453        C  0.65060685  0.45835665  0.05465196     0.99800
C454        C  0.82188750  0.44176047  0.05153496     1.01800
C455        C  0.83175366  0.56652447  0.93796198     1.00800
C456        C  0.66624485  0.57465359  0.93014362     0.99600
C457        C  0.65660290  0.45363175  0.93260342     0.99700
C458        C  0.82331518  0.44608493  0.93356715     1.02300
H459        H  0.69774002  0.51243426  0.92641724     0.29700
O460        O  0.71030861  0.51177461  0.94639977    -1.05600
H461        H  0.78460105  0.43853232  0.99473017     0.31700
O462        O  0.77230614  0.45894042  0.99530326    -1.08200
O463        O  0.23607857  0.61373071  0.96129521    -0.80700
O464        O  0.24221823  0.49029344  0.10486066    -0.82300
O465        O  0.18470008  0.58060373  0.06336507    -0.79300
O466        O  0.28946545  0.58626115  0.05924878    -0.77700
O467        O  0.33012978  0.55778022  0.03250900    -0.79500
O468        O  0.14522070  0.54696331  0.04228092    -0.80400
O469        O  0.23805667  0.54651525  0.10074714    -0.81700
O470        O  0.23739906  0.61652482  0.01743143    -0.82000
Eu471      Eu  0.23778272  0.56174962  0.04239418     2.39200
O472        O  0.27496679  0.51755390  0.04509287    -0.89500
O473        O  0.20251563  0.55722635  0.99756861    -0.93100
C474        C  0.23831396  0.62968561  0.98854012     1.01600
C475        C  0.23893556  0.51927629  0.11731877     1.01400
C476        C  0.15471386  0.57108150  0.06065335     1.01300
C477        C  0.31977534  0.57995983  0.05282952     0.99200
H478        H  0.19513262  0.51240604  0.06842120     0.28900
O479        O  0.20837599  0.51230639  0.04867729    -1.01900
H480        H  0.28199242  0.58030132  0.99114177     0.29000
O481        O  0.26901511  0.56047737  0.99352204    -1.04500
O482        O  0.25373443  0.40996132  0.03548687    -0.81700
O483        O  0.22762696  0.53035482  0.89346392    -0.81200
O484        O  0.15155835  0.46645670  0.04257932    -0.79700
O485        O  0.33874801  0.48362745  0.03390748    -0.83000
O486        O  0.32891974  0.55080070  0.95257368    -0.80900
O487        O  0.14126746  0.54308226  0.96735344    -0.79500
O488        O  0.18709185  0.43355090  0.94697935    -0.81000
O489        O  0.29428453  0.44532954  0.93260771    -0.83000
O490        O  0.14741985  0.46446670  0.97234778    -0.79700
O491        O  0.33199458  0.47904318  0.95661978    -0.82400
O492        O  0.19466712  0.44169208  0.06833857    -0.78100
O493        O  0.17771789  0.57190336  0.93523948    -0.78100
O494        O  0.28597952  0.57165501  0.92328599    -0.77800
O495        O  0.30244715  0.45533446  0.06673088    -0.81300
O496        O  0.25035162  0.40426478  0.97979109    -0.80700
O497        O  0.23358866  0.47427461  0.89773545    -0.79000
Eu498      Eu  0.24577065  0.46787992  0.04956177     2.39800
Eu499      Eu  0.23360963  0.55447416  0.94857487     2.39600
Eu500      Eu  0.17314895  0.50786237  0.00416711     2.38400
Eu501      Eu  0.30549676  0.51616383  0.99597059     2.39900
Eu502      Eu  0.24050429  0.45994322  0.95631708     2.39800
O503        O  0.26992500  0.50967394  0.95121022    -0.93400
O504        O  0.20997381  0.46298673  0.00528930    -0.92300
C505        C  0.25515689  0.39267320  0.00903386     1.01700
C506        C  0.22859354  0.50105622  0.88108365     1.00400
C507        C  0.16382594  0.44485839  0.06232950     0.99800
C508        C  0.33187435  0.46334928  0.05752207     1.01800
C509        C  0.31689038  0.56766255  0.92865851     1.00800
C510        C  0.14833602  0.56470051  0.94497936     0.99600
C511        C  0.15695218  0.43992615  0.95466849     0.99700
C512        C  0.32375687  0.45628391  0.93625871     1.02300
H513        H  0.18859883  0.50266549  0.93688838     0.29700
O514        O  0.20359578  0.50508202  0.95472077    -1.05600
H515        H  0.29218206  0.44854403  0.00116293     0.31700
O516        O  0.27657811  0.46636454  0.00070070    -1.08200
C517        C  0.98949080  0.70756203  0.80825439     0.85900
C518        C  0.01787181  0.68394094  0.81600946    -0.54300
C519        C  0.02288440  0.67939598  0.84884999     0.08800
C520        C  0.99902348  0.69861650  0.87105991     0.19800
C521        C  0.95974591  0.69305403  0.82709585    -0.55100
C522        C  0.96476567  0.68832029  0.85970874     0.08900
C523        C  0.99782702  0.73928705  0.82684072    -0.54600
C524        C  0.00315401  0.73475704  0.85960404     0.09500
H525        H  0.03288529  0.67221701  0.79722651     0.14000
H526        H  0.00312787  0.69467610  0.89770884    -0.00300
H527        H  0.93666182  0.68596463  0.81646125     0.14300
H528        H  0.99903401  0.76336821  0.81500647     0.14100
C529        C  0.99890628  0.32152196  0.80205202     0.85900
C530        C  0.97143693  0.34328038  0.81634737    -0.54300
C531        C  0.97098347  0.34504427  0.85003168     0.08800
C532        C  0.99830110  0.32420882  0.86623442     0.19800
C533        C  0.03079250  0.33517557  0.81691717    -0.55100
C534        C  0.03065347  0.33641974  0.85044346     0.08900
C535        C  0.99458540  0.28801604  0.81920406    -0.54600
C536        C  0.99378804  0.28932635  0.85258077     0.09500
H537        H  0.95434087  0.35654304  0.80089201     0.14000
H538        H  0.99798494  0.32435659  0.89344964    -0.00300
H539        H  0.05210871  0.34268128  0.80271297     0.14300
H540        H  0.99270263  0.26487487  0.80601559     0.14100
C541        C  0.48688777  0.69043304  0.79743560     0.85900
C542        C  0.45757872  0.67170262  0.81274119    -0.54300
C543        C  0.46183944  0.63830527  0.81603962     0.08800
C544        C  0.49595312  0.62687775  0.80408152     0.19800
C545        C  0.51551107  0.68140399  0.82011106    -0.55100
C546        C  0.52002223  0.64814165  0.82380855     0.08900
C547        C  0.49433629  0.67271172  0.76526763    -0.54600
C548        C  0.49934918  0.63965887  0.76841651     0.09500
H549        H  0.43668585  0.68411187  0.82343103     0.14000
H550        H  0.50051434  0.60001114  0.80646509    -0.00300
H551        H  0.52998770  0.69956161  0.83306695     0.14300
H552        H  0.49493057  0.68539575  0.74167380     0.14100
C553        C  0.49022502  0.69818898  0.19098783     0.85900
C554        C  0.51821339  0.68868611  0.16704396    -0.54300
C555        C  0.51951675  0.65566487  0.15998616     0.08800
C556        C  0.49313552  0.63510248  0.17805968     0.19800
C557        C  0.45883679  0.68374381  0.17548714    -0.55100
C558        C  0.46044607  0.65092581  0.16792530     0.08900
C559        C  0.49544414  0.67608196  0.22136474    -0.54600
C560        C  0.49705768  0.64309144  0.21468747     0.09500
H561        H  0.53459516  0.70669158  0.15574189     0.14000
H562        H  0.49538035  0.60839050  0.17301048    -0.00300
H563        H  0.43669820  0.69783988  0.17174192     0.14300
H564        H  0.49684674  0.68558403  0.24618190     0.14100
C565        C  0.99561220  0.31382117  0.18766782     0.85900
C566        C  0.02372025  0.33112265  0.16914896    -0.54300
C567        C  0.01876676  0.33503504  0.13632102     0.08800
C568        C  0.98544531  0.32142030  0.12487176     0.19800
C569        C  0.96532580  0.33494216  0.17972416    -0.55100
C570        C  0.95943413  0.33856240  0.14684181     0.08900
C571        C  0.99018672  0.28143636  0.16931691    -0.54600
C572        C  0.98477016  0.28523710  0.13656657     0.09500
H573        H  0.04481778  0.34182597  0.18088928     0.14000
H574        H  0.98129056  0.32398654  0.09811677    -0.00300
H575        H  0.94975732  0.34567794  0.19861922     0.14300
H576        H  0.99084173  0.25741570  0.18131186     0.14100
C577        C  0.97867420  0.69675531  0.19339926     0.85900
C578        C  0.94783863  0.68401234  0.17619601    -0.54300
C579        C  0.95008938  0.68430924  0.14297813     0.08800
C580        C  0.98290403  0.69675378  0.12930292     0.19800
C581        C  0.00648241  0.67456687  0.17957234    -0.55100
C582        C  0.00876635  0.67440655  0.14572807     0.08900
C583        C  0.98534439  0.73082205  0.17805437    -0.54600
C584        C  0.98748764  0.73089376  0.14459921     0.09500
H585        H  0.92688561  0.67279287  0.18842915     0.14000
H586        H  0.98394880  0.69764576  0.10212280    -0.00300
H587        H  0.02213125  0.65981170  0.19523157     0.14300
H588        H  0.98762519  0.75314423  0.19251019     0.14100
C589        C  0.49356469  0.31813842  0.80669123     0.85900
C590        C  0.52000563  0.33825330  0.82402610    -0.54300
C591        C  0.51521489  0.37170346  0.82392863     0.08800
C592        C  0.48289541  0.38187067  0.80676436     0.19800
C593        C  0.46171317  0.32819678  0.82444921    -0.55100
C594        C  0.45568081  0.36148474  0.82458227     0.08900
C595        C  0.49100512  0.33351906  0.77242822    -0.54600
C596        C  0.48486055  0.36655666  0.77210337     0.09500
H597        H  0.53963609  0.32702087  0.83763375     0.14000
H598        H  0.47826586  0.40881362  0.80603030    -0.00300
H599        H  0.44573298  0.31026986  0.83642485     0.14300
H600        H  0.49258601  0.31903180  0.75009192     0.14100
C601        C  0.49183290  0.31410767  0.18898409     0.85900
C602        C  0.46297354  0.32475106  0.16747773    -0.54300
C603        C  0.45946305  0.35830410  0.16389259     0.08800
C604        C  0.48581068  0.37820881  0.18247084     0.19800
C605        C  0.52182732  0.33138160  0.17328915    -0.55100
C606        C  0.51900406  0.36474901  0.16982518     0.08900
C607        C  0.48635658  0.33236630  0.22150689    -0.54600
C608        C  0.48283343  0.36570832  0.21837377     0.09500
H609        H  0.44703291  0.30693372  0.15588464     0.14000
H610        H  0.48347099  0.40539044  0.18025418    -0.00300
H611        H  0.54392233  0.31902959  0.16529252     0.14300
H612        H  0.48566088  0.31987073  0.24519377     0.14100
O613        O  0.55029844  0.42542990  0.44635104    -0.80700
O614        O  0.46001486  0.49505294  0.59577430    -0.82300
O615        O  0.56391965  0.45520944  0.55556534    -0.79300
O616        O  0.47436228  0.40251335  0.52517290    -0.77700
O617        O  0.43297588  0.41532026  0.48996931    -0.79500
O618        O  0.58422326  0.50681959  0.54437179    -0.80400
O619        O  0.49054851  0.44876621  0.58522636    -0.81700
O620        O  0.53950930  0.40915768  0.49935866    -0.82000
Eu621      Eu  0.50961359  0.45180653  0.52822823     2.39200
O622        O  0.45599240  0.47356179  0.52663820    -0.89500
O623        O  0.54465932  0.48361033  0.49454709    -0.93100
C624        C  0.55091190  0.40416219  0.47025457     1.01600
C625        C  0.47369831  0.46750347  0.60444567     1.01400
C626        C  0.58646615  0.47770903  0.55681030     1.01300
C627        C  0.44847964  0.39501849  0.50880417     0.99200
H628        H  0.51905388  0.50617851  0.56836744     0.28900
O629        O  0.51081212  0.50652363  0.54631341    -1.01900
H630        H  0.49009128  0.42880515  0.46530146     0.29000
O631        O  0.49126429  0.45102192  0.47357595    -1.04500
O632        O  0.43978665  0.58785061  0.53777488    -0.81700
O633        O  0.52935448  0.51598169  0.38908949    -0.81200
O634        O  0.54123462  0.56620184  0.56718806    -0.79700
O635        O  0.38727417  0.48077387  0.50392507    -0.83000
O636        O  0.44161714  0.44605913  0.41729932    -0.80900
O637        O  0.59700915  0.53175754  0.48062977    -0.79500
O638        O  0.50901673  0.60903837  0.45819564    -0.81000
O639        O  0.42050088  0.55458186  0.42608771    -0.83000
O640        O  0.54873998  0.59633501  0.49537947    -0.79700
O641        O  0.40110487  0.50256756  0.43680118    -0.82400
O642        O  0.48825275  0.55873446  0.58478066    -0.78100
O643        O  0.58592109  0.49370735  0.44083652    -0.78100
O644        O  0.49456187  0.45320638  0.39953252    -0.77800
O645        O  0.39960919  0.51396697  0.54748585    -0.81300
O646        O  0.44921749  0.60353265  0.48430275    -0.80700
O647        O  0.49629278  0.56071754  0.39857596    -0.79000
Eu648      Eu  0.45760813  0.52888446  0.54425064     2.39800
Eu649      Eu  0.52718762  0.48193370  0.43993792     2.39600
Eu650      Eu  0.54569898  0.53858128  0.51258770     2.38400
Eu651      Eu  0.43832459  0.47297609  0.47170652     2.39900
Eu652      Eu  0.47459392  0.55871768  0.45462572     2.39800
O653        O  0.47394341  0.50374589  0.43753390    -0.93400
O654        O  0.49252930  0.55908197  0.50927862    -0.92300
C655        C  0.44026187  0.60944535  0.51404149     1.01700
C656        C  0.51560590  0.54338634  0.38038352     1.00400
C657        C  0.51776626  0.56889862  0.58876454     0.99800
C658        C  0.37961673  0.49666334  0.53032781     1.01800
C659        C  0.46483899  0.44343483  0.39557841     1.00800
C660        C  0.60555532  0.51233169  0.45699454     0.99600
C661        C  0.53368943  0.61669828  0.47633531     0.99700
C662        C  0.39848556  0.53151652  0.42413310     1.02300
H663        H  0.54335993  0.55028313  0.44389639     0.29700
O664        O  0.52846910  0.53740303  0.45740651    -1.05600
H665        H  0.41757764  0.53802830  0.48904533     0.31700
O666        O  0.43908727  0.52828065  0.48962762    -1.08200
O667        O  0.07400888  0.95445026  0.04369166    -0.80700
O668        O  0.00435490  0.03981658  0.89162277    -0.82300
O669        O  0.04297778  0.93348868  0.93862699    -0.79300
O670        O  0.09542856  0.02395016  0.96401339    -0.77700
O671        O  0.08325700  0.06676812  0.99844142    -0.79500
O672        O  0.99163260  0.91330522  0.94998100    -0.80400
O673        O  0.04735352  0.00603830  0.90399240    -0.81700
O674        O  0.08904244  0.96198356  0.98981924    -0.82000
Eu675      Eu  0.04550451  0.98992087  0.96160626     2.39200
O676        O  0.02528046  0.04442402  0.96065394    -0.89500
O677        O  0.01409497  0.95568419  0.99641696    -0.93100
C678        C  0.09510571  0.95342902  0.01953963     1.01600
C679        C  0.03071557  0.02369903  0.88375892     1.01400
C680        C  0.02099544  0.91046478  0.93835903     1.01300
C681        C  0.10334358  0.04952900  0.98091546     0.99200
H682        H  0.99185271  0.97903128  0.92205090     0.28900
O683        O  0.99135625  0.98845003  0.94377415    -1.01900
H684        H  0.06869300  0.01234484  0.02359479     0.29000
O685        O  0.04675952  0.01096090  0.01522430    -1.04500
O686        O  0.91381450  0.06598764  0.94867374    -0.81700
O687        O  0.98457496  0.98043408  0.10218396    -0.81200
O688        O  0.93232551  0.95749505  0.92422377    -0.79700
O689        O  0.02162634  0.11433446  0.98008135    -0.83000
O690        O  0.05012514  0.06247565  0.07055675    -0.80900
O691        O  0.96535002  0.90493417  0.01420163    -0.79500
O692        O  0.89061440  0.99586938  0.03300682    -0.81000
O693        O  0.94403604  0.08590080  0.05746316    -0.83000
O694        O  0.90187303  0.95319655  0.99816791    -0.79700
O695        O  0.99562062  0.10520503  0.04598453    -0.82400
O696        O  0.94045457  0.00990237  0.90408231    -0.78100
O697        O  0.00239958  0.91754493  0.05392797    -0.78100
O698        O  0.04455003  0.00932591  0.08931992    -0.77800
O699        O  0.98635044  0.10105867  0.93899640    -0.81300
O700        O  0.89669098  0.05610367  0.00158321    -0.80700
O701        O  0.94150708  0.01430100  0.09030222    -0.79000
Eu702      Eu  0.97045877  0.04275339  0.94293905     2.39800
Eu703      Eu  0.01632641  0.97599718  0.04995272     2.39600
Eu704      Eu  0.95932928  0.95468002  0.97894132     2.38400
Eu705      Eu  0.02569565  0.06456820  0.01489437     2.39900
Eu706      Eu  0.94039590  0.02987634  0.03240352     2.39800
O707        O  0.99476646  0.02991226  0.04953631    -0.93400
O708        O  0.93951015  0.00892164  0.97879862    -0.92300
C709        C  0.89205566  0.06684408  0.97219113     1.01700
C710        C  0.95878992  0.99716762  0.11049878     1.00400
C711        C  0.92997801  0.98009085  0.90164493     0.99800
C712        C  0.00477581  0.12164625  0.95437290     1.01800
C713        C  0.05304457  0.03961934  0.09269602     1.00800
C714        C  0.98332160  0.89722786  0.03912257     0.99600
C715        C  0.88230989  0.96986936  0.01698089     0.99700
C716        C  0.96663948  0.10841205  0.05817771     1.02300
H717        H  0.94806700  0.96153086  0.04756476     0.29700
O718        O  0.96098288  0.97522553  0.03301268    -1.05600
H719        H  0.96174787  0.08548946  0.99604575     0.31700
O720        O  0.97115418  0.06375992  0.99652023    -1.08200
C721        C  0.47777107  0.38722462  0.24741869    -0.05800
C722        C  0.49600831  0.41637095  0.25028797    -0.05800
C723        C  0.49472100  0.43463625  0.27924655    -0.23900
C724        C  0.47496787  0.42413035  0.30572920     0.18300
C725        C  0.45496490  0.39591639  0.30258262     0.15500
C726        C  0.45659830  0.37751008  0.27341456    -0.19000
C727        C  0.43473642  0.38604352  0.32913657    -0.20800
C728        C  0.43612516  0.40264325  0.35925733    -0.13400
C729        C  0.45793530  0.42908919  0.36312349     0.03300
C730        C  0.47612464  0.44055502  0.33578595    -0.25500
H731        H  0.51247631  0.42419464  0.23069285     0.08400
H732        H  0.50999044  0.45641145  0.28131623     0.12000
H733        H  0.44206553  0.35524087  0.27120613     0.11900
H734        H  0.41878810  0.36479370  0.32698187     0.11700
H735        H  0.42156246  0.39375197  0.37989300     0.12200
H736        H  0.49235436  0.46159598  0.33830742     0.14200
C737        C  0.47267270  0.45719687  0.63927926    -0.05800
C738        C  0.49416131  0.47231817  0.66126261    -0.05800
C739        C  0.49972163  0.45857830  0.69231569    -0.23900
C740        C  0.48407127  0.42918241  0.70189712     0.18300
C741        C  0.46185058  0.41403771  0.68013673     0.15500
C742        C  0.45623965  0.42817527  0.64898728    -0.19000
C743        C  0.44670013  0.38429847  0.68938225    -0.20800
C744        C  0.45402993  0.36936014  0.71943848    -0.13400
C745        C  0.47635533  0.38396229  0.74109792     0.03300
C746        C  0.49101235  0.41416182  0.73237432    -0.25500
H747        H  0.50823309  0.49372230  0.65362715     0.08400
H748        H  0.51715280  0.47033484  0.70837246     0.12000
H749        H  0.44035039  0.41586231  0.63174268     0.11900
H750        H  0.42960065  0.37229341  0.67314234     0.11700
H751        H  0.44221694  0.34619950  0.72582454     0.12200
H752        H  0.50851594  0.42534023  0.74878198     0.14200
C753        C  0.99321110  0.76141178  0.12520410    -0.05800
C754        C  0.01731723  0.78383169  0.13510654    -0.05800
C755        C  0.02131469  0.81394963  0.11882400    -0.23900
C756        C  0.00095847  0.82234354  0.09257447     0.18300
C757        C  0.97734318  0.79954265  0.08156157     0.15500
C758        C  0.97381645  0.76894258  0.09779589    -0.19000
C759        C  0.95714170  0.80823907  0.05517405    -0.20800
C760        C  0.95951598  0.83965171  0.04068330    -0.13400
C761        C  0.98210282  0.86293650  0.05235352     0.03300
C762        C  0.00328597  0.85360455  0.07787367    -0.25500
H763        H  0.03287079  0.77813237  0.15576603     0.08400
H764        H  0.03979991  0.83102447  0.12729447     0.12000
H765        H  0.95513219  0.75169012  0.09008117     0.11900
H766        H  0.93905379  0.79101339  0.04619070     0.11700
H767        H  0.94317083  0.84593358  0.02083810     0.12200
H768        H  0.02121454  0.87094916  0.08699253     0.14200
C769        C  0.95992456  0.14089362  0.07307063    -0.05800
C770        C  0.93950212  0.14427184  0.10075644    -0.05800
C771        C  0.93827016  0.17433828  0.11757492    -0.23900
C772        C  0.95733486  0.20131942  0.10676678     0.18300
C773        C  0.97606578  0.19872882  0.07754436     0.15500
C774        C  0.97708880  0.16867587  0.06088400    -0.19000
C775        C  0.99466634  0.22575594  0.06625342    -0.20800
C776        C  0.99614425  0.25460992  0.08475797    -0.13400
C777        C  0.97928994  0.25668949  0.11485124     0.03300
C778        C  0.95912168  0.23033411  0.12529897    -0.25500
H779        H  0.92590873  0.12328715  0.11033619     0.08400
H780        H  0.92338354  0.17611909  0.13969253     0.12000
H781        H  0.99238368  0.16653165  0.03902512     0.11900
H782        H  0.00892511  0.22417311  0.04369616     0.11700
H783        H  0.01174753  0.27467168  0.07636466     0.12200
H784        H  0.94560569  0.23209720  0.14829917     0.14200
C785        C  0.52302880  0.55774333  0.34797336    -0.05800
C786        C  0.54498981  0.58433538  0.34625834    -0.05800
C787        C  0.54587481  0.60505744  0.31875137    -0.23900
C788        C  0.52456866  0.59961444  0.29257817     0.18300
C789        C  0.50360560  0.57175819  0.29323688     0.15500
C790        C  0.50291055  0.55093326  0.32106543    -0.19000
C791        C  0.48256648  0.56630025  0.26679303    -0.20800
C792        C  0.48135567  0.58891103  0.24068593    -0.13400
C793        C  0.50084511  0.61751684  0.24070793     0.03300
C794        C  0.52292755  0.62233474  0.26646086    -0.25500
H795        H  0.56007522  0.59025359  0.36715587     0.08400
H796        H  0.56217841  0.62618345  0.31860426     0.12000
H797        H  0.48534894  0.53086148  0.32270959     0.11900
H798        H  0.46643429  0.54504035  0.26671501     0.11700
H799        H  0.46408465  0.58474160  0.22121774     0.12200
H800        H  0.53841292  0.64409641  0.26643464     0.14200
C801        C  0.52405308  0.58300355  0.62141294    -0.05800
C802        C  0.54419605  0.61063038  0.62571517    -0.05800
C803        C  0.54533011  0.62613570  0.65640024    -0.23900
C804        C  0.52671390  0.61383405  0.68312088     0.18300
C805        C  0.50794950  0.58489025  0.67931639     0.15500
C806        C  0.50665162  0.56988421  0.64857776    -0.19000
C807        C  0.48970947  0.57212550  0.70594998    -0.20800
C808        C  0.48864060  0.58892302  0.73579061    -0.13400
C809        C  0.50554052  0.61879571  0.73926432     0.03300
C810        C  0.52541673  0.63059952  0.71315531    -0.25500
H811        H  0.55768970  0.62110705  0.60509230     0.08400
H812        H  0.56000842  0.64823908  0.65900260     0.12000
H813        H  0.49099746  0.54853751  0.64546863     0.11900
H814        H  0.47542314  0.54974372  0.70335422     0.11700
H815        H  0.47314237  0.57953997  0.75550953     0.12200
H816        H  0.53893927  0.65344457  0.71587329     0.14200
C817        C  0.00591051  0.15596835  0.94140344    -0.05800
C818        C  0.02840553  0.17944195  0.95299310    -0.05800
C819        C  0.02940830  0.21139935  0.93949344    -0.23900
C820        C  0.00787510  0.22039153  0.91428026     0.18300
C821        C  0.98472251  0.19710225  0.90322890     0.15500
C822        C  0.98388173  0.16537826  0.91679248    -0.19000
C823        C  0.96308418  0.20550925  0.87814857    -0.20800
C824        C  0.96525777  0.23623616  0.86296759    -0.13400
C825        C  0.98896180  0.25920294  0.87265147     0.03300
C826        C  0.00961988  0.25169215  0.89909331    -0.25500
H827        H  0.04551238  0.17298932  0.97212673     0.08400
H828        H  0.04729517  0.22887403  0.94841495     0.12000
H829        H  0.96607161  0.14785895  0.90776322     0.11900
H830        H  0.94503588  0.18797831  0.86964383     0.11700
H831        H  0.94885413  0.24183404  0.84295015     0.12200
H832        H  0.02802210  0.26936383  0.90655523     0.14200
C833        C  0.01073697  0.76255941  0.88176577    -0.05800
C834        C  0.99568803  0.76388614  0.91283736    -0.05800
C835        C  0.99828275  0.79215605  0.93200699    -0.23900
C836        C  0.01574982  0.81966728  0.92022764     0.18300
C837        C  0.03289471  0.81790995  0.88995479     0.15500
C838        C  0.03054750  0.78914646  0.87100059    -0.19000
C839        C  0.05028005  0.84569231  0.87833661    -0.20800
C840        C  0.04835804  0.87569849  0.89521442    -0.13400
C841        C  0.02917354  0.87813585  0.92391542     0.03300
C842        C  0.01438376  0.84958538  0.93715778    -0.25500
H843        H  0.98029562  0.74381151  0.92155103     0.08400
H844        H  0.98519719  0.79312446  0.95529140     0.12000
H845        H  0.04283538  0.78803311  0.84728545     0.11900
H846        H  0.06389587  0.84469656  0.85536366     0.11700
H847        H  0.06015735  0.89738257  0.88480569     0.12200
H848        H  0.00012436  0.85115233  0.95975210     0.14200
C849        C  0.05915633  0.34849544  0.86943093    -0.05800
C850        C  0.09154402  0.34380636  0.85810940    -0.05800
C851        C  0.11786865  0.35820932  0.87449298    -0.23900
C852        C  0.11212355  0.37819266  0.90195869     0.18300
C853        C  0.07979840  0.38201842  0.91404658     0.15500
C854        C  0.05389175  0.36649938  0.89822558    -0.19000
C855        C  0.07352374  0.40271865  0.94075081    -0.20800
C856        C  0.09887218  0.42081675  0.95441911    -0.13400
C857        C  0.13108964  0.41806176  0.94204811     0.03300
C858        C  0.13776323  0.39572593  0.91651184    -0.25500
H859        H  0.09654337  0.32927138  0.83641369     0.08400
H860        H  0.14252335  0.35473303  0.86497155     0.12000
H861        H  0.02953204  0.37027451  0.90743419     0.11900
H862        H  0.04881115  0.40587510  0.95027120     0.11700
H863        H  0.09304580  0.43748547  0.97434290     0.12200
H864        H  0.16248728  0.39329365  0.90680621     0.14200
C865        C  0.14094513  0.42142866  0.07850398    -0.05800
C866        C  0.15233901  0.39868703  0.10197103    -0.05800
C867        C  0.13104340  0.37567296  0.11630755    -0.23900
C868        C  0.09794731  0.37510175  0.10755424     0.18300
C869        C  0.08622466  0.39778011  0.08399676     0.15500
C870        C  0.10774588  0.42069154  0.06956006    -0.19000
C871        C  0.05306662  0.39739589  0.07552304    -0.20800
C872        C  0.03145066  0.37558028  0.09119568    -0.13400
C873        C  0.04250727  0.35378084  0.11551925     0.03300
C874        C  0.07617701  0.35286822  0.12267341    -0.25500
H875        H  0.17778227  0.39858684  0.10926247     0.08400
H876        H  0.14040202  0.35852433  0.13444120     0.12000
H877        H  0.09857518  0.43783627  0.05130220     0.11900
H878        H  0.04366385  0.41457852  0.05744126     0.11700
H879        H  0.00594323  0.37694809  0.08517487     0.12200
H880        H  0.08529502  0.33561444  0.14085015     0.14200
C881        C  0.03253171  0.65381701  0.12619245    -0.05800
C882        C  0.02509973  0.64463821  0.09373843    -0.05800
C883        C  0.04693184  0.62597319  0.07481369    -0.23900
C884        C  0.07701339  0.61600803  0.08764469     0.18300
C885        C  0.08518326  0.62520488  0.12001011     0.15500
C886        C  0.06282797  0.64366587  0.13918515    -0.19000
C887        C  0.11586459  0.61626553  0.13240451    -0.20800
C888        C  0.13820828  0.59873086  0.11290679    -0.13400
C889        C  0.13009898  0.58891979  0.08091857     0.03300
C890        C  0.09922451  0.59740929  0.06849487    -0.25500
H891        H  0.00209979  0.65126357  0.08267202     0.08400
H892        H  0.04026229  0.61941997  0.05000288     0.12000
H893        H  0.06948316  0.65078138  0.16382336     0.11900
H894        H  0.12277625  0.62319601  0.15703633     0.11700
H895        H  0.16189837  0.59252031  0.12298677     0.12200
H896        H  0.09293525  0.59042745  0.04368057     0.14200
C897        C  0.04979540  0.65928473  0.86208838    -0.05800
C898        C  0.08186829  0.66301822  0.84979128    -0.05800
C899        C  0.10764400  0.64545577  0.86384298    -0.23900
C900        C  0.10150649  0.62341576  0.88989178     0.18300
C901        C  0.06913931  0.61906372  0.90187998     0.15500
C902        C  0.04358581  0.63739858  0.88819961    -0.19000
C903        C  0.06287572  0.59648982  0.92737516    -0.20800
C904        C  0.08852197  0.57847409  0.94108085    -0.13400
C905        C  0.12094668  0.58295243  0.92972455     0.03300
C906        C  0.12717595  0.60562041  0.90407651    -0.25500
H907        H  0.08706874  0.68017167  0.82989277     0.08400
H908        H  0.13231955  0.64908880  0.85436168     0.12000
H909        H  0.01885578  0.63452509  0.89774055     0.11900
H910        H  0.03815250  0.59275162  0.93669642     0.11700
H911        H  0.08294367  0.56125821  0.96081406     0.12200
H912        H  0.15198038  0.60941158  0.89499305     0.14200
C913        C  0.35021069  0.44296844  0.91498440    -0.05800
C914        C  0.37877867  0.46182903  0.90976285    -0.05800
C915        C  0.40413618  0.45031810  0.88974067    -0.23900
C916        C  0.40164395  0.41953415  0.87460015     0.18300
C917        C  0.37286781  0.40047910  0.87902920     0.15500
C918        C  0.34720591  0.41232640  0.89916150    -0.19000
C919        C  0.37052429  0.36982983  0.86344513    -0.20800
C920        C  0.39688163  0.35772580  0.84476709    -0.13400
C921        C  0.42623428  0.37592206  0.84136857     0.03300
C922        C  0.42787122  0.40728073  0.85571906    -0.25500
H923        H  0.38153497  0.48577560  0.92106106     0.08400
H924        H  0.42586201  0.46541887  0.88634294     0.12000
H925        H  0.32526054  0.39758863  0.90284613     0.11900
H926        H  0.34851562  0.35500679  0.86605902     0.11700
H927        H  0.39429337  0.33390954  0.83319727     0.12200
H928        H  0.44996305  0.42176986  0.85343222     0.14200
C929        C  0.34013089  0.58327078  0.90538682    -0.05800
C930        C  0.33059214  0.61142652  0.88773149    -0.05800
C931        C  0.35180776  0.62590725  0.86484675    -0.23900
C932        C  0.38302218  0.61258141  0.85932820     0.18300
C933        C  0.39303034  0.58424637  0.87684440     0.15500
C934        C  0.37149605  0.56971034  0.89988928    -0.19000
C935        C  0.42443845  0.57127518  0.87108494    -0.20800
C936        C  0.44638454  0.58755042  0.84976157    -0.13400
C937        C  0.43725680  0.61703158  0.83376094     0.03300
C938        C  0.40467337  0.62797012  0.83726848    -0.25500
H939        H  0.30670381  0.62241888  0.89177868     0.08400
H940        H  0.34393871  0.64781917  0.85175290     0.12000
H941        H  0.37899942  0.54783592  0.91327952     0.11900
H942        H  0.43237980  0.54916268  0.88381319     0.11700
H943        H  0.47073816  0.57748897  0.84697796     0.12200
H944        H  0.39614544  0.64924473  0.82364588     0.14200
C945        C  0.34431418  0.59849364  0.07135215    -0.05800
C946        C  0.34409961  0.63311795  0.07163245    -0.05800
C947        C  0.36666903  0.65045287  0.09060081    -0.23900
C948        C  0.38908162  0.63329883  0.11031884     0.18300
C949        C  0.38863933  0.59844017  0.11080110     0.15500
C950        C  0.36668633  0.58127322  0.09087678    -0.19000
C951        C  0.41003632  0.58127721  0.13134278    -0.20800
C952        C  0.43236754  0.59835866  0.15063870    -0.13400
C953        C  0.43423762  0.63304982  0.14956945     0.03300
C954        C  0.41203477  0.65033527  0.12936481    -0.25500
H955        H  0.32670379  0.64667152  0.05692541     0.08400
H956        H  0.36640561  0.67719532  0.09007028     0.12000
H957        H  0.36633664  0.55449945  0.09120574     0.11900
H958        H  0.40959003  0.55454648  0.13243033     0.11700
H959        H  0.44819223  0.58399196  0.16619121     0.12200
H960        H  0.41301356  0.67696817  0.12753151     0.14200
C961        C  0.43250047  0.37364617  0.14438768    -0.05800
C962        C  0.40241741  0.35705798  0.14054013    -0.05800
C963        C  0.37720215  0.37105667  0.12218739    -0.23900
C964        C  0.38131634  0.40209323  0.10741278     0.18300
C965        C  0.41139625  0.41898564  0.11066347     0.15500
C966        C  0.43665053  0.40479349  0.12929681    -0.19000
C967        C  0.41562745  0.44981085  0.09523265    -0.20800
C968        C  0.39001939  0.46403459  0.07742050    -0.13400
C969        C  0.35958995  0.44787647  0.07509709     0.03300
C970        C  0.35564998  0.41665034  0.08982188    -0.25500
H971        H  0.39796996  0.33338993  0.15219532     0.08400
H972        H  0.35432118  0.35770954  0.11982889     0.12000
H973        H  0.45956301  0.41793333  0.13155760     0.11900
H974        H  0.43862544  0.46302679  0.09715725     0.11700
H975        H  0.39376221  0.48802788  0.06609835     0.12200
H976        H  0.33255427  0.40363992  0.08758965     0.14200
C977        C  0.54645825  0.38456445  0.15517192    -0.05800
C978        C  0.57889267  0.37695125  0.16386165    -0.05800
C979        C  0.60551804  0.39070190  0.14681146    -0.23900
C980        C  0.60042786  0.41233318  0.12043143     0.18300
C981        C  0.56803200  0.42134720  0.11217140     0.15500
C982        C  0.54118800  0.40770522  0.12985914    -0.19000
C983        C  0.56312699  0.44286669  0.08558444    -0.20800
C984        C  0.58986619  0.45466362  0.06702141    -0.13400
C985        C  0.62229015  0.44538874  0.07460528     0.03300
C986        C  0.62722466  0.42442731  0.10179039    -0.25500
H987        H  0.58368054  0.35946717  0.18345278     0.08400
H988        H  0.63012206  0.38363694  0.15369480     0.12000
H989        H  0.51641135  0.41354937  0.12264615     0.11900
H990        H  0.53856614  0.45022004  0.07881858     0.11700
H991        H  0.58501141  0.47100051  0.04650393     0.12200
H992        H  0.65189249  0.41723063  0.10833674     0.14200
C993        C  0.63869463  0.59826169  0.06803949    -0.05800
C994        C  0.65039460  0.62489832  0.08669740    -0.05800
C995        C  0.62923638  0.64292553  0.10700838    -0.23900
C996        C  0.59596623  0.63448901  0.10935556     0.18300
C997        C  0.58374568  0.60870588  0.08962280     0.15500
C998        C  0.60499816  0.59122164  0.06866133    -0.19000
C999        C  0.55067455  0.59983847  0.09217938    -0.20800
C1000       C  0.53009184  0.61554597  0.11474819    -0.13400
C1001       C  0.54193744  0.64075301  0.13504635     0.03300
C1002       C  0.57490892  0.65060328  0.13176763    -0.25500
H1003       H  0.67617454  0.63130782  0.08629683     0.08400
H1004       H  0.63911258  0.66275494  0.12165214     0.12000
H1005       H  0.59556904  0.57094479  0.05429810     0.11900
H1006       H  0.54083241  0.58026283  0.07717877     0.11700
H1007       H  0.50466719  0.60795349  0.11618121     0.12200
H1008       H  0.58439643  0.66985824  0.14740219     0.14200
C1009       C  0.64305548  0.59294041  0.90888569    -0.05800
C1010       C  0.65475750  0.61376282  0.88345191    -0.05800
C1011       C  0.63304585  0.62935287  0.86205222    -0.23900
C1012       C  0.59919681  0.62452691  0.86566389     0.18300
C1013       C  0.58715889  0.60402754  0.89135497     0.15500
C1014       C  0.60907284  0.58847255  0.91273827    -0.19000
C1015       C  0.55332979  0.59919934  0.89512041    -0.20800
C1016       C  0.53165526  0.61408248  0.87332026    -0.13400
C1017       C  0.54338029  0.63384393  0.84735287     0.03300
C1018       C  0.57715969  0.63950936  0.84387775    -0.25500
H1019       H  0.68079548  0.61768758  0.87970737     0.08400
H1020       H  0.64274974  0.64493378  0.84251181     0.12000
H1021       H  0.59958739  0.57250998  0.93208375     0.11900
H1022       H  0.54363881  0.58387236  0.91486451     0.11700
H1023       H  0.50563184  0.61053548  0.87702746     0.12200
H1024       H  0.58619792  0.65495974  0.82390520     0.14200
C1025       C  0.53841676  0.39425508  0.84147290    -0.05800
C1026       C  0.52808698  0.42432179  0.85525599    -0.05800
C1027       C  0.54883672  0.44236036  0.87588977    -0.23900
C1028       C  0.58030968  0.43059718  0.88336527     0.18300
C1029       C  0.59132157  0.40118551  0.86848188     0.15500
C1030       C  0.57092764  0.38401625  0.84702130    -0.19000
C1031       C  0.62236503  0.38877623  0.87581241    -0.20800
C1032       C  0.64258579  0.40543822  0.89748999    -0.13400
C1033       C  0.63258650  0.43526709  0.91218188     0.03300
C1034       C  0.60104188  0.44758623  0.90521840    -0.25500
H1035       H  0.50373614  0.43357793  0.85102935     0.08400
H1036       H  0.53994779  0.46509619  0.88663147     0.12000
H1037       H  0.58042675  0.36205634  0.83527750     0.11900
H1038       H  0.63101622  0.36601683  0.86487605     0.11700
H1039       H  0.66643993  0.39494665  0.90249558     0.12200
H1040       H  0.59294481  0.47051512  0.91618143     0.14200
C1041       C  0.92984880  0.35568876  0.13385057    -0.05800
C1042       C  0.89990050  0.35556094  0.15145340    -0.05800
C1043       C  0.87214764  0.37145434  0.13888195    -0.23900
C1044       C  0.87380301  0.38798520  0.10852182     0.18300
C1045       C  0.90378384  0.38801288  0.09075191     0.15500
C1046       C  0.93120965  0.37173075  0.10329691    -0.19000
C1047       C  0.90609313  0.40438845  0.06058253    -0.20800
C1048       C  0.87909611  0.42088568  0.04811125    -0.13400
C1049       C  0.84894069  0.42163904  0.06544905     0.03300
C1050       C  0.84631245  0.40466790  0.09565748    -0.25500
H1051       H  0.89768058  0.34267922  0.17473299     0.08400
H1052       H  0.84944115  0.37083243  0.15292048     0.12000
H1053       H  0.95359131  0.37195388  0.08911599     0.11900
H1054       H  0.92888998  0.40462114  0.04663364     0.11700
H1055       H  0.88204252  0.43328662  0.02461242     0.12200
H1056       H  0.82339697  0.40510527  0.10936750     0.14200
C1057       C  0.94679045  0.36537059  0.86908883    -0.05800
C1058       C  0.95517766  0.37832548  0.89983942    -0.05800
C1059       C  0.93348679  0.39802219  0.91767628    -0.23900
C1060       C  0.90211362  0.40429310  0.90583242     0.18300
C1061       C  0.89266976  0.39076368  0.87544391     0.15500
C1062       C  0.91516677  0.37185574  0.85702324    -0.19000
C1063       C  0.86066641  0.39585374  0.86435772    -0.20800
C1064       C  0.83822456  0.41374724  0.88336050    -0.13400
C1065       C  0.84748721  0.42752038  0.91351444     0.03300
C1066       C  0.87975629  0.42305622  0.92436995    -0.25500
H1067       H  0.97849344  0.37351815  0.91055103     0.08400
H1068       H  0.94108655  0.40780121  0.94111419     0.12000
H1069       H  0.90763354  0.36145771  0.83385586     0.11900
H1070       H  0.85283087  0.38561206  0.84121488     0.11700
H1071       H  0.81357595  0.41699787  0.87429272     0.12200
H1072       H  0.88719235  0.43330578  0.94767811     0.14200
C1073       C  0.93954031  0.67195181  0.88037885    -0.05800
C1074       C  0.91032296  0.68860454  0.88798690    -0.05800
C1075       C  0.88332045  0.67140072  0.90096496    -0.23900
C1076       C  0.88504680  0.63715001  0.90611248     0.18300
C1077       C  0.91477094  0.62042128  0.89934811     0.15500
C1078       C  0.94184830  0.63796827  0.88662703    -0.19000
C1079       C  0.91662389  0.58624984  0.90452500    -0.20800
C1080       C  0.88942792  0.56878836  0.91654570    -0.13400
C1081       C  0.85967227  0.58502163  0.92319126     0.03300
C1082       C  0.85756101  0.61928283  0.91759921    -0.25500
H1083       H  0.90804267  0.71471951  0.88262835     0.08400
H1084       H  0.86082700  0.68470218  0.90608187     0.12000
H1085       H  0.96402057  0.62489584  0.87976691     0.11900
H1086       H  0.93915823  0.57302358  0.89938091     0.11700
H1087       H  0.89163770  0.54244422  0.92061977     0.12200
H1088       H  0.83483158  0.63212381  0.92294656     0.14200
C1089       C  0.85617271  0.58340068  0.06563756    -0.05800
C1090       C  0.88826344  0.57080236  0.06637560    -0.05800
C1091       C  0.91344684  0.58891915  0.08051363    -0.23900
C1092       C  0.90697675  0.62001834  0.09386663     0.18300
C1093       C  0.87487674  0.63312227  0.09288747     0.15500
C1094       C  0.84973298  0.61476468  0.07872342    -0.19000
C1095       C  0.86834533  0.66408402  0.10669819    -0.20800
C1096       C  0.89329805  0.68152422  0.12206119    -0.13400
C1097       C  0.92504091  0.66846915  0.12310916     0.03300
C1098       C  0.93189727  0.63790365  0.10888372    -0.25500
H1099       H  0.89385486  0.54673600  0.05634498     0.08400
H1100       H  0.93790702  0.57853808  0.08118354     0.12000
H1101       H  0.82518174  0.62493676  0.07788574     0.11900
H1102       H  0.84386154  0.67440939  0.10627533     0.11700
H1103       H  0.88779261  0.70488697  0.13367688     0.12200
H1104       H  0.95619031  0.62736983  0.11095809     0.14200
C1105       C  0.04340954  0.02422467  0.84934261    -0.05800
C1106       C  0.03592434  0.04963422  0.82699918    -0.05800
C1107       C  0.05055067  0.05030425  0.79554768    -0.23900
C1108       C  0.07281527  0.02556297  0.78594799     0.18300
C1109       C  0.07969838  0.99953062  0.80804836     0.15500
C1110       C  0.06486097  0.99892985  0.83918634    -0.19000
C1111       C  0.10220419  0.97495690  0.79918012    -0.20800
C1112       C  0.11889894  0.97686445  0.76918569    -0.13400
C1113       C  0.11297801  0.00298336  0.74725793     0.03300
C1114       C  0.08927042  0.02689103  0.75529087    -0.25500
H1115       H  0.01950983  0.06938315  0.83412112     0.08400
H1116       H  0.04498379  0.07051971  0.77899868     0.12000
H1117       H  0.07063033  0.97882399  0.85584278     0.11900
H1118       H  0.10772598  0.95486311  0.81591782     0.11700
H1119       H  0.13728468  0.95843265  0.76342696     0.12200
H1120       H  0.08509319  0.04736059  0.73859462     0.14200
C1121       C  0.06595706  0.04747956  0.12521263    -0.05800
C1122       C  0.09503001  0.06538069  0.12887116    -0.05800
C1123       C  0.11068183  0.06569626  0.15930168    -0.23900
C1124       C  0.09763159  0.04762766  0.18602643     0.18300
C1125       C  0.06736622  0.03117666  0.18281992     0.15500
C1126       C  0.05139712  0.03189231  0.15269208    -0.19000
C1127       C  0.05468960  0.01235303  0.20902673    -0.20800
C1128       C  0.07296933  0.00797081  0.23749968    -0.13400
C1129       C  0.10382982  0.02306466  0.24057537     0.03300
C1130       C  0.11522493  0.04413268  0.21518956    -0.25500
H1131       H  0.10661323  0.07728433  0.10785761     0.08400
H1132       H  0.13389366  0.07846994  0.16141931     0.12000
H1133       H  0.02869304  0.01824965  0.14993446     0.11900
H1134       H  0.03143338  0.99962412  0.20683873     0.11700
H1135       H  0.06346724  0.99148000  0.25629714     0.12200
H1136       H  0.13838375  0.05692706  0.21748712     0.14200
C1137       C  0.19178183  0.50401192  0.26931692    -0.05800
C1138       C  0.18487444  0.47466843  0.25220278    -0.05800
C1139       C  0.19392511  0.47144544  0.21921906    -0.23900
C1140       C  0.20997290  0.49735677  0.20276381     0.18300
C1141       C  0.21651158  0.52700113  0.21946025     0.15500
C1142       C  0.20724648  0.53013321  0.25233134    -0.19000
C1143       C  0.23218548  0.55316737  0.20303352    -0.20800
C1144       C  0.24039742  0.55038669  0.16987554    -0.13400
C1145       C  0.23369564  0.52113305  0.15296261     0.03300
C1146       C  0.21905479  0.49440724  0.16972538    -0.25500
H1147       H  0.17341798  0.45362647  0.26385060     0.08400
H1148       H  0.18860808  0.44857663  0.20665804     0.12000
H1149       H  0.21287767  0.55277530  0.26518885     0.11900
H1150       H  0.23749056  0.57599337  0.21565106     0.11700
H1151       H  0.25166024  0.57122850  0.15735039     0.12200
H1152       H  0.21342124  0.47184410  0.15673862     0.14200
C1153       C  0.24755022  0.52390681  0.37518316    -0.05800
C1154       C  0.25043176  0.50931569  0.40629043    -0.05800
C1155       C  0.28043331  0.50969136  0.42248509    -0.23900
C1156       C  0.30795250  0.52488337  0.40788294     0.18300
C1157       C  0.30507537  0.54124233  0.37741129     0.15500
C1158       C  0.27478070  0.54081316  0.36131599    -0.19000
C1159       C  0.33283219  0.55670309  0.36321039    -0.20800
C1160       C  0.36340216  0.55512482  0.37875322    -0.13400
C1161       C  0.36652442  0.53776631  0.40845220     0.03300
C1162       C  0.33851711  0.52310534  0.42291505    -0.25500
H1163       H  0.22997729  0.49612549  0.41734975     0.08400
H1164       H  0.28236333  0.49726399  0.44603110     0.12000
H1165       H  0.27264769  0.55280255  0.33756759     0.11900
H1166       H  0.33103007  0.56938871  0.33980022     0.11700
H1167       H  0.38468676  0.56626936  0.36703673     0.12200
H1168       H  0.34072684  0.50947496  0.44574719     0.14200
C1169       C  0.78664345  0.52008431  0.26865883    -0.05800
C1170       C  0.77559486  0.55076287  0.25640517    -0.05800
C1171       C  0.76519877  0.55423480  0.22390510    -0.23900
C1172       C  0.76484929  0.52690363  0.20299250     0.18300
C1173       C  0.77539131  0.49596680  0.21508938     0.15500
C1174       C  0.78632986  0.49279148  0.24747386    -0.19000
C1175       C  0.77450453  0.46834115  0.19474165    -0.20800
C1176       C  0.76368092  0.47126673  0.16256730    -0.13400
C1177       C  0.75384004  0.50200942  0.14967827     0.03300
C1178       C  0.75420544  0.52982626  0.17027033    -0.25500
H1179       H  0.77480209  0.57215621  0.27221313     0.08400
H1180       H  0.75706478  0.57818830  0.21528644     0.12000
H1181       H  0.79330937  0.46858490  0.25599440     0.11900
H1182       H  0.78246203  0.44441575  0.20362160     0.11700
H1183       H  0.76409389  0.44938862  0.14742567     0.12200
H1184       H  0.74664226  0.55365645  0.16080068     0.14200
C1185       C  0.74655447  0.52561034  0.38468227    -0.05800
C1186       C  0.73280187  0.55712788  0.38806443    -0.05800
C1187       C  0.70424706  0.56164581  0.40675808    -0.23900
C1188       C  0.68849957  0.53445759  0.42143278     0.18300
C1189       C  0.70282818  0.50270566  0.41880341     0.15500
C1190       C  0.73220618  0.49862672  0.40098929    -0.19000
C1191       C  0.68634431  0.47525889  0.43202092    -0.20800
C1192       C  0.65509892  0.47890449  0.44579556    -0.13400
C1193       C  0.64034142  0.51013902  0.44762308     0.03300
C1194       C  0.65761582  0.53807928  0.43664053    -0.25500
H1195       H  0.74355865  0.57802846  0.37517523     0.08400
H1196       H  0.69358786  0.58607794  0.40830497     0.12000
H1197       H  0.74259593  0.47421046  0.39778344     0.11900
H1198       H  0.69685875  0.45077940  0.43019407     0.11700
H1199       H  0.64193893  0.45714182  0.45422065     0.12200
H1200       H  0.64599837  0.56211804  0.43764896     0.14200
C1201       C  0.87383120  0.99636365  0.75550051    -0.05800
C1202       C  0.90629289  0.00774515  0.75587016    -0.05800
C1203       C  0.92550897  0.00300363  0.78376730    -0.23900
C1204       C  0.91241653  0.98685070  0.81160749     0.18300
C1205       C  0.88068751  0.97307528  0.81052403     0.15500
C1206       C  0.86176706  0.97764026  0.78235939    -0.19000
C1207       C  0.86772085  0.95665197  0.83831499    -0.20800
C1208       C  0.88493504  0.95635940  0.86787598    -0.13400
C1209       C  0.91526665  0.97236480  0.86977660     0.03300
C1210       C  0.92960371  0.98610896  0.84115554    -0.25500
H1211       H  0.91623424  0.02174077  0.73531565     0.08400
H1212       H  0.95004548  0.01326166  0.78412197     0.12000
H1213       H  0.83712642  0.96764682  0.78185303     0.11900
H1214       H  0.84353979  0.94561807  0.83768129     0.11700
H1215       H  0.87361796  0.94568360  0.88966956     0.12200
H1216       H  0.95331584  0.99816095  0.84248778     0.14200
C1217       C  0.87536299  0.01573457  0.24622417    -0.05800
C1218       C  0.86690077  0.03992231  0.22306737    -0.05800
C1219       C  0.88368446  0.04240362  0.19327621    -0.23900
C1220       C  0.90908967  0.02044258  0.18582909     0.18300
C1221       C  0.91931624  0.99702013  0.20939243     0.15500
C1222       C  0.90246205  0.99496865  0.23987785    -0.19000
C1223       C  0.94520644  0.97544667  0.20125810    -0.20800
C1224       C  0.95919466  0.97582207  0.16945847    -0.13400
C1225       C  0.94746708  0.99778869  0.14540026     0.03300
C1226       C  0.92331403  0.02085610  0.15449884    -0.25500
H1227       H  0.84656661  0.05648051  0.22774607     0.08400
H1228       H  0.87595294  0.06077485  0.17553016     0.12000
H1229       H  0.90912517  0.97622140  0.25768005     0.11900
H1230       H  0.95392805  0.95766836  0.21910822     0.11700
H1231       H  0.97837352  0.95834267  0.16344839     0.12200
H1232       H  0.91456684  0.03876992  0.13676184     0.14200
C1233       C  0.18631440  0.51230205  0.72678642    -0.05800
C1234       C  0.16972924  0.53638843  0.74553899    -0.05800
C1235       C  0.17432326  0.53853184  0.77944869    -0.23900
C1236       C  0.19565044  0.51684145  0.79548260     0.18300
C1237       C  0.21163318  0.49191026  0.77733749     0.15500
C1238       C  0.20642125  0.48947198  0.74342046    -0.19000
C1239       C  0.23292178  0.47008601  0.79336186    -0.20800
C1240       C  0.23835430  0.47298815  0.82709572    -0.13400
C1241       C  0.22285621  0.49795168  0.84534596     0.03300
C1242       C  0.20138798  0.51976508  0.82931681    -0.25500
H1243       H  0.15295376  0.55369355  0.73467463     0.08400
H1244       H  0.16141344  0.55746527  0.79310629     0.12000
H1245       H  0.21878199  0.47023999  0.72963970     0.11900
H1246       H  0.24551338  0.45089009  0.77977916     0.11700
H1247       H  0.25505639  0.45598284  0.83887238     0.12200
H1248       H  0.18895313  0.53884172  0.84324106     0.14200
C1249       C  0.24805507  0.49592756  0.62093728    -0.05800
C1250       C  0.27397111  0.47990479  0.63716735    -0.05800
C1251       C  0.30414043  0.47514922  0.62168010    -0.23900
C1252       C  0.30910874  0.48588790  0.58937528     0.18300
C1253       C  0.28292982  0.50025211  0.57183256     0.15500
C1254       C  0.25238903  0.50510401  0.58773077    -0.19000
C1255       C  0.28830156  0.51052150  0.53916194    -0.20800
C1256       C  0.31956753  0.50785060  0.52472071    -0.13400
C1257       C  0.34574041  0.49486639  0.54274898     0.03300
C1258       C  0.34022033  0.48340872  0.57479372    -0.25500
H1259       H  0.27110812  0.47112323  0.66219105     0.08400
H1260       H  0.32379347  0.46355739  0.63522577     0.12000
H1261       H  0.23265075  0.51715905  0.57475357     0.11900
H1262       H  0.26864730  0.52151220  0.52516932     0.11700
H1263       H  0.32364225  0.51738182  0.50015579     0.12200
H1264       H  0.36051599  0.47347117  0.58872289     0.14200
C1265       C  0.78453291  0.51822089  0.72023186    -0.05800
C1266       C  0.77660985  0.54991555  0.73214550    -0.05800
C1267       C  0.76929062  0.55483441  0.76535001    -0.23900
C1268       C  0.76812981  0.52794603  0.78705269     0.18300
C1269       C  0.77399312  0.49584369  0.77490357     0.15500
C1270       C  0.78203698  0.49121411  0.74184131    -0.19000
C1271       C  0.77110806  0.46859781  0.79581681    -0.20800
C1272       C  0.76277635  0.47300373  0.82859922    -0.13400
C1273       C  0.75764273  0.50483926  0.84143583     0.03300
C1274       C  0.76042233  0.53237417  0.82045381    -0.25500
H1275       H  0.77560092  0.57101423  0.71578802     0.08400
H1276       H  0.76383954  0.57953113  0.77387398     0.12000
H1277       H  0.78540012  0.46633040  0.73287873     0.11900
H1278       H  0.77524157  0.44380766  0.78682618     0.11700
H1279       H  0.76097775  0.45119482  0.84402421     0.12200
H1280       H  0.75640336  0.55699747  0.82994777     0.14200
C1281       C  0.61795586  0.47084593  0.57280276    -0.05800
C1282       C  0.61939053  0.45721668  0.60446896    -0.05800
C1283       C  0.64886905  0.45800350  0.62183873    -0.23900
C1284       C  0.67710250  0.47247497  0.60767485     0.18300
C1285       C  0.67617086  0.48439889  0.57508900     0.15500
C1286       C  0.64673448  0.48326007  0.55785435    -0.19000
C1287       C  0.70424011  0.49877540  0.56079055    -0.20800
C1288       C  0.73258357  0.50308892  0.57924715    -0.13400
C1289       C  0.73338411  0.49295766  0.61223778     0.03300
C1290       C  0.70581286  0.47648515  0.62589493    -0.25500
H1291       H  0.59740427  0.44783238  0.61642371     0.08400
H1292       H  0.64923823  0.44858674  0.64679556     0.12000
H1293       H  0.64573238  0.49368236  0.53326806     0.11900
H1294       H  0.70388217  0.50778314  0.53567824     0.11700
H1295       H  0.75329714  0.51570895  0.56805666     0.12200
H1296       H  0.70631555  0.46742546  0.65096676     0.14200
C1297       C  0.98456441  0.26903385  0.34191363    -0.05800
C1298       C  0.95406642  0.26581610  0.32635591    -0.05800
C1299       C  0.95056090  0.27427824  0.29344261    -0.23900
C1300       C  0.97742301  0.28627499  0.27546332     0.18300
C1301       C  0.00825022  0.28934575  0.29062000     0.15500
C1302       C  0.01177016  0.28035655  0.32369614    -0.19000
C1303       C  0.03492790  0.30163177  0.27249222    -0.20800
C1304       C  0.03120906  0.31048433  0.23957231    -0.13400
C1305       C  0.00050111  0.30749729  0.22411983     0.03300
C1306       C  0.97385055  0.29512333  0.24251021    -0.25500
H1307       H  0.93260089  0.25726441  0.33980459     0.08400
H1308       H  0.92673425  0.27185781  0.28219179     0.12000
H1309       H  0.03527636  0.28334698  0.33548359     0.11900
H1310       H  0.05880402  0.30401308  0.28364868     0.19700
H1311       H  0.05297489  0.31840079  0.22653738     0.12200
H1312       H  0.95028191  0.29192271  0.23088129     0.14200
C1313       C  0.98472200  0.27013621  0.65050764    -0.05800
C1314       C  0.95877822  0.25740201  0.66979714    -0.05800
C1315       C  0.95545384  0.26613319  0.70286502    -0.23900
C1316       C  0.97754081  0.28842810  0.71688382     0.18300
C1317       C  0.00321917  0.30177468  0.69739614     0.15500
C1318       C  0.00698056  0.29214601  0.66456438    -0.19000
C1319       C  0.02442147  0.32505345  0.71086798    -0.20800
C1320       C  0.02176008  0.33342543  0.74397021    -0.13400
C1321       C  0.99817811  0.31819343  0.76461977     0.03300
C1322       C  0.97475917  0.29726731  0.75011076    -0.25500
H1323       H  0.94100160  0.24080898  0.65919788     0.08400
H1324       H  0.93548450  0.25572803  0.71734338     0.12000
H1325       H  0.02645450  0.30280864  0.64955704     0.11900
H1326       H  0.04341649  0.33652651  0.69587310     0.11700
H1327       H  0.03855110  0.35172520  0.75299426     0.12200
H1328       H  0.95536924  0.28649343  0.76513314     0.14200
C1329       C  0.91405222  0.37795730  0.42564625    -0.05800
C1330       C  0.92315859  0.41061708  0.43309458    -0.05800
C1331       C  0.90577659  0.43754096  0.42058223    -0.23900
C1332       C  0.87892355  0.43262726  0.40003993     0.18300
C1333       C  0.86952444  0.40010620  0.39197473     0.15500
C1334       C  0.88695579  0.37298704  0.40496456    -0.19000
C1335       C  0.84305093  0.39537263  0.37076732    -0.20800
C1336       C  0.82653184  0.42251466  0.35731541    -0.13400
C1337       C  0.83567601  0.45497328  0.36523693     0.03300
C1338       C  0.86170248  0.45974210  0.38701028    -0.25500
H1339       H  0.94375316  0.41552343  0.44888509     0.08400
H1340       H  0.91346973  0.46228611  0.42690281     0.12000
H1341       H  0.87944192  0.34811865  0.39890016     0.11900
H1342       H  0.83538763  0.37068677  0.36422243     0.11700
H1343       H  0.80646751  0.41814133  0.34069859     0.12200
H1344       H  0.86937792  0.48451450  0.39286973     0.14200
C1345       C  0.83603387  0.44998911  0.62890009    -0.05800
C1346       C  0.83518725  0.41884141  0.64435409    -0.05800
C1347       C  0.85422164  0.39280681  0.63237400    -0.23900
C1348       C  0.87464190  0.39752196  0.60484507     0.18300
C1349       C  0.87580817  0.42879688  0.58927186     0.15500
C1350       C  0.85636082  0.45468035  0.60126349    -0.19000
C1351       C  0.89651955  0.43374197  0.56203225    -0.20800
C1352       C  0.91573493  0.40789226  0.55014704    -0.13400
C1353       C  0.91445754  0.37650524  0.56512967     0.03300
C1354       C  0.89383621  0.37152792  0.59259597    -0.25500
H1355       H  0.81950514  0.41452205  0.66558238     0.08400
H1356       H  0.85299541  0.36902914  0.64465922     0.12000
H1357       H  0.85773530  0.47862301  0.58956643     0.11900
H1358       H  0.89774026  0.45755525  0.54981003     0.11700
H1359       H  0.93113003  0.41236113  0.52872431     0.12200
H1360       H  0.89271273  0.34750290  0.60443002     0.14200
C1361       C  0.08014052  0.36524672  0.56378363    -0.05800
C1362       C  0.08498970  0.39412310  0.54487992    -0.05800
C1363       C  0.10411144  0.42002828  0.55633193    -0.23900
C1364       C  0.11875493  0.41785417  0.58713459     0.18300
C1365       C  0.11508413  0.38865680  0.60607069     0.15500
C1366       C  0.09596234  0.36232988  0.59419984    -0.19000
C1367       C  0.13011529  0.38666975  0.63677795    -0.20800
C1368       C  0.14749193  0.41364764  0.64900659    -0.13400
C1369       C  0.15000937  0.44342335  0.63098555     0.03300
C1370       C  0.13624204  0.44482149  0.59956620    -0.25500
H1371       H  0.07375108  0.39682571  0.52103641     0.08400
H1372       H  0.10695116  0.44202906  0.54128624     0.12000
H1373       H  0.09257197  0.34021030  0.60896507     0.11900
H1374       H  0.12806939  0.36442313  0.65156376     0.11700
H1375       H  0.15880567  0.41107680  0.67278095     0.12200
H1376       H  0.13789662  0.46719919  0.58511817     0.14200
C1377       C  0.07900832  0.36372374  0.41989980    -0.05800
C1378       C  0.09667889  0.35321596  0.39198278    -0.05800
C1379       C  0.11814634  0.37451718  0.37548222    -0.23900
C1380       C  0.12267853  0.40678877  0.38661589     0.18300
C1381       C  0.10516518  0.41793287  0.41449120     0.15500
C1382       C  0.08323211  0.39638981  0.43091955    -0.19000
C1383       C  0.11023408  0.45029830  0.42548252    -0.20800
C1384       C  0.13156533  0.47163384  0.40833477    -0.13400
C1385       C  0.14815401  0.46115960  0.37976859     0.03300
C1386       C  0.14434274  0.42807192  0.36999852    -0.25500
H1387       H  0.09388184  0.32838626  0.38271719     0.08400
H1388       H  0.13126862  0.36568625  0.35397982     0.12000
H1389       H  0.06993245  0.40486400  0.45245829     0.11900
H1390       H  0.09736678  0.45927293  0.44706901     0.11700
H1391       H  0.13417091  0.49648789  0.41709136     0.12200
H1392       H  0.15799035  0.41865588  0.34912339     0.14200
C1393       C  0.12005957  0.06689476  0.65268506    -0.05800
C1394       C  0.12352768  0.09943110  0.66377565    -0.05800
C1395       C  0.10773566  0.12553386  0.64792321    -0.23900
C1396       C  0.08823791  0.11969971  0.62043263     0.18300
C1397       C  0.08374454  0.08694764  0.60952357     0.15500
C1398       C  0.09961594  0.06067602  0.62580131    -0.19000
C1399       C  0.06395572  0.08123858  0.58218353    -0.20800
C1400       C  0.04930919  0.10768531  0.56553615    -0.13400
C1401       C  0.05427937  0.14057531  0.57560915     0.03300
C1402       C  0.07363143  0.14618400  0.60345079    -0.25500
H1403       H  0.13886214  0.10469353  0.68465042     0.08400
H1404       H  0.11122018  0.15039764  0.65687576     0.12000
H1405       H  0.09710228  0.03576596  0.61678144     0.11900
H1406       H  0.06001388  0.05633896  0.57347951     0.11700
H1407       H  0.03441210  0.10231005  0.54438244     0.12200
H1408       H  0.07755861  0.17118832  0.61184840     0.14200
C1409       C  0.90737996  0.15585230  0.58107718    -0.05800
C1410       C  0.87808716  0.16626223  0.59644272    -0.05800
C1411       C  0.86139660  0.14576071  0.61874005    -0.23900
C1412       C  0.87360163  0.11430402  0.62628259     0.18300
C1413       C  0.90274501  0.10334077  0.61087233     0.15500
C1414       C  0.91941720  0.12407798  0.58825586    -0.19000
C1415       C  0.91482136  0.07189653  0.61857954    -0.20800
C1416       C  0.89778223  0.05114262  0.64052064    -0.13400
C1417       C  0.86818495  0.06122524  0.65553063     0.03300
C1418       C  0.85694679  0.09360075  0.64879173    -0.25500
H1419       H  0.86806278  0.19047900  0.59130901     0.08400
H1420       H  0.83894476  0.15457260  0.63013296     0.12000
H1421       H  0.94209787  0.11581450  0.57690230     0.11900
H1422       H  0.93730241  0.06309968  0.60725782     0.11700
H1423       H  0.90780582  0.02693482  0.64493268     0.12200
H1424       H  0.83520300  0.10309119  0.66083525     0.14200
C1425       C  0.90407815  0.15602395  0.41795194    -0.05800
C1426       C  0.87336598  0.16479042  0.40524302    -0.05800
C1427       C  0.85515925  0.14209813  0.38722179    -0.23900
C1428       C  0.86772039  0.11052177  0.38093919     0.18300
C1429       C  0.89835080  0.10136519  0.39402884     0.15500
C1430       C  0.91611642  0.12398118  0.41274048    -0.19000
C1431       C  0.91111112  0.06999820  0.38753751    -0.20800
C1432       C  0.89418087  0.04819431  0.36746132    -0.13400
C1433       C  0.86417040  0.05730686  0.35330348     0.03300
C1434       C  0.85072233  0.08838652  0.36088913    -0.25500
H1435       H  0.86338886  0.18921072  0.40931014     0.08400
H1436       H  0.83160120  0.14948661  0.37760638     0.12000
H1437       H  0.93981977  0.11697548  0.42233448     0.11900
H1438       H  0.93441791  0.06245661  0.39764503     0.11700
H1439       H  0.90469152  0.02406317  0.36333782     0.12200
H1440       H  0.82770391  0.09597792  0.35023588     0.14200
C1441       C  0.10729829  0.05248340  0.34894691    -0.05800
C1442       C  0.07517346  0.04413397  0.35927542    -0.05800
C1443       C  0.05684524  0.06518267  0.37948010    -0.23900
C1444       C  0.06963719  0.09570495  0.38889229     0.18300
C1445       C  0.10140625  0.10483223  0.37794815     0.15500
C1446       C  0.12000123  0.08321306  0.35847364    -0.19000
C1447       C  0.11396601  0.13577954  0.38610974    -0.20800
C1448       C  0.09517403  0.15761913  0.40467673    -0.13400
C1449       C  0.06351976  0.14890057  0.41594590     0.03300
C1450       C  0.05096132  0.11763690  0.40823479    -0.25500
H1451       H  0.06362505  0.02154255  0.35178495     0.08400
H1452       H  0.03237573  0.05784048  0.38718355     0.12000
H1453       H  0.14399382  0.09103845  0.34986620     0.11900
H1454       H  0.13821154  0.14327346  0.37783293     0.11700
H1455       H  0.10558050  0.18150226  0.41033933     0.12200
H1456       H  0.02646181  0.11084531  0.41636261     0.14200
C1457       C  0.99571489  0.73494489  0.34840230    -0.05800
C1458       C  0.02659979  0.73339828  0.33252563    -0.05800
C1459       C  0.02948209  0.72319424  0.29999611    -0.23900
C1460       C  0.00156765  0.71442289  0.28248137     0.18300
C1461       C  0.97058131  0.71487417  0.29836640     0.15500
C1462       C  0.96778928  0.72505683  0.33119656    -0.19000
C1463       C  0.94273615  0.70613034  0.28082783    -0.20800
C1464       C  0.94523488  0.69872968  0.24748841    -0.13400
C1465       C  0.97592094  0.69897210  0.23084457     0.03300
C1466       C  0.00404378  0.70642346  0.24903422    -0.25500
H1467       H  0.04879478  0.74010795  0.34521137     0.08400
H1468       H  0.05351849  0.72263951  0.28841033     0.12000
H1469       H  0.94392287  0.72549440  0.34317156     0.11900
H1470       H  0.91874445  0.70636600  0.29254624     0.11700
H1471       H  0.92246137  0.69478330  0.23499517     0.12200
H1472       H  0.02772154  0.70749561  0.23671734     0.14200
C1473       C  0.00093585  0.75644866  0.65497840    -0.05800
C1474       C  0.03061318  0.76237784  0.67126871    -0.05800
C1475       C  0.03428901  0.75321174  0.70411668    -0.23900
C1476       C  0.00838633  0.73790903  0.72117913     0.18300
C1477       C  0.97844288  0.73221416  0.70511191     0.15500
C1478       C  0.97477784  0.74177319  0.67230410    -0.19000
C1479       C  0.95270300  0.71662651  0.72195202    -0.20800
C1480       C  0.95610878  0.70758595  0.75478143    -0.13400
C1481       C  0.98548113  0.71399996  0.77163005     0.03300
C1482       C  0.01179489  0.72850214  0.75410657    -0.25500
H1483       H  0.05125281  0.77354444  0.65843861     0.08400
H1484       H  0.05745462  0.75777861  0.71604418     0.12000
H1485       H  0.95193674  0.73661927  0.65996600     0.11900
H1486       H  0.92972018  0.71168964  0.70980579     0.11700
H1487       H  0.93518120  0.69604872  0.76630963     0.12200
H1488       H  0.03468850  0.73327639  0.76651231     0.14200
C1489       C  0.07443737  0.64886694  0.43205689    -0.05800
C1490       C  0.08087601  0.62046681  0.45088259    -0.05800
C1491       C  0.10031937  0.59520307  0.43836630    -0.23900
C1492       C  0.11342582  0.59756664  0.40655187     0.18300
C1493       C  0.10713091  0.62583529  0.38715302     0.15500
C1494       C  0.08782317  0.65155263  0.40010814    -0.19000
C1495       C  0.12026167  0.62770494  0.35522907    -0.20800
C1496       C  0.13909233  0.60169183  0.34267351    -0.13400
C1497       C  0.14514308  0.57316241  0.36173766     0.03300
C1498       C  0.13243009  0.57178053  0.39387625    -0.25500
H1499       H  0.07126752  0.61797160  0.47568534     0.08400
H1500       H  0.10501771  0.57372492  0.45358956     0.12000
H1501       H  0.08293942  0.67331767  0.38533253     0.11900
H1502       H  0.11592336  0.64921410  0.33994263     0.11700
H1503       H  0.14910041  0.60426095  0.31808628     0.12200
H1504       H  0.13649927  0.55044431  0.40913994     0.14200
C1505       C  0.08244301  0.65860178  0.57813289    -0.05800
C1506       C  0.10140663  0.66875397  0.60486152    -0.05800
C1507       C  0.12261780  0.64673554  0.62039784    -0.23900
C1508       C  0.12545283  0.61409792  0.60946455     0.18300
C1509       C  0.10714513  0.60361717  0.58224184     0.15500
C1510       C  0.08566645  0.62589512  0.56677330    -0.19000
C1511       C  0.11045301  0.57094386  0.57129295    -0.20800
C1512       C  0.13044157  0.54849043  0.58817988    -0.13400
C1513       C  0.14756068  0.55826320  0.61626920     0.03300
C1514       C  0.14577343  0.59162753  0.62587103    -0.25500
H1515       H  0.09956199  0.69371454  0.61406696     0.08400
H1516       H  0.13656849  0.65516598  0.64123164     0.12000
H1517       H  0.07163088  0.61782415  0.54584559     0.11900
H1518       H  0.09692039  0.56251374  0.55018449     0.11700
H1519       H  0.13137971  0.52324315  0.57994766     0.12200
H1520       H  0.15971295  0.60013196  0.64666706     0.14200
C1521       C  0.90922237  0.65542580  0.58265801    -0.05800
C1522       C  0.89172639  0.66515466  0.61098801    -0.05800
C1523       C  0.86747338  0.64492441  0.62474829    -0.23900
C1524       C  0.86017786  0.61443204  0.61054607     0.18300
C1525       C  0.87769642  0.60402243  0.58239452     0.15500
C1526       C  0.90228206  0.62450713  0.56866254    -0.19000
C1527       C  0.86993459  0.57349716  0.56832364    -0.20800
C1528       C  0.84656772  0.55265285  0.58320037    -0.13400
C1529       C  0.83050124  0.56184088  0.61250680     0.03300
C1530       C  0.83609730  0.59393121  0.62460106    -0.25500
H1531       H  0.89646843  0.68878362  0.62231211     0.08400
H1532       H  0.85438185  0.65318158  0.64650273     0.12000
H1533       H  0.91518415  0.61689191  0.54656564     0.11900
H1534       H  0.88252915  0.56535336  0.54625520     0.11700
H1535       H  0.84209435  0.52902333  0.57210998     0.12200
H1536       H  0.82248803  0.60294691  0.64565732     0.14200
C1537       C  0.91964730  0.64118421  0.43427962    -0.05800
C1538       C  0.92171658  0.60878650  0.44671182    -0.05800
C1539       C  0.90357035  0.58328959  0.43271201    -0.23900
C1540       C  0.88319522  0.58969828  0.40591316     0.18300
C1541       C  0.88138722  0.62205501  0.39292993     0.15500
C1542       C  0.89958792  0.64747249  0.40708676    -0.19000
C1543       C  0.86114773  0.62859190  0.36615216    -0.20800
C1544       C  0.84307747  0.60323062  0.35210896    -0.13400
C1545       C  0.84494540  0.57077626  0.36446622     0.03300
C1546       C  0.86469489  0.56433677  0.39180275    -0.25500
H1547       H  0.93691499  0.60321767  0.46765834     0.08400
H1548       H  0.90533713  0.55861567  0.44295498     0.12000
H1549       H  0.89791708  0.67222479  0.39697384     0.11900
H1550       H  0.85924274  0.65333155  0.35608606     0.11700
H1551       H  0.82729156  0.60919786  0.33172731     0.12200
H1552       H  0.86617631  0.53964605  0.40180952     0.14200
C1553       C  0.05636800  0.87196472  0.41313058    -0.05800
C1554       C  0.04831207  0.90495965  0.42038444    -0.05800
C1555       C  0.05970612  0.93066230  0.40065456    -0.23900
C1556       C  0.07935527  0.92397994  0.37321296     0.18300
C1557       C  0.08728944  0.89105618  0.36511391     0.15500
C1558       C  0.07578158  0.86514705  0.38521549    -0.19000
C1559       C  0.10715976  0.88486011  0.33745918    -0.20800
C1560       C  0.11983110  0.91117886  0.31878785    -0.13400
C1561       C  0.11249141  0.94389566  0.32739723     0.03300
C1562       C  0.09205300  0.94994868  0.35441638    -0.25500
H1563       H  0.03316756  0.91112871  0.44147890     0.08400
H1564       H  0.05333324  0.95581478  0.40701348     0.12000
H1565       H  0.08197542  0.83987946  0.37917594     0.11900
H1566       H  0.11348123  0.85980759  0.33074937     0.11700
H1567       H  0.13592729  0.90609338  0.29810519     0.12200
H1568       H  0.08781803  0.97492336  0.36225959     0.14200
C1569       C  0.90919822  0.85948972  0.41860314    -0.05800
C1570       C  0.87489534  0.85863697  0.42033898    -0.05800
C1571       C  0.85649161  0.88099678  0.40202173    -0.23900
C1572       C  0.87225774  0.90370758  0.38101516     0.18300
C1573       C  0.90680078  0.90365800  0.37823177     0.15500
C1574       C  0.92513585  0.88192716  0.39756174    -0.19000
C1575       C  0.92236355  0.92524849  0.35610692    -0.20800
C1576       C  0.90393602  0.94727397  0.33740317    -0.13400
C1577       C  0.86960569  0.94891301  0.34115576     0.03300
C1578       C  0.85401944  0.92660275  0.36299224    -0.25500
H1579       H  0.86244441  0.84108107  0.43633986     0.08400
H1580       H  0.82999779  0.88045540  0.40417722     0.12000
H1581       H  0.95169655  0.88201710  0.39590318     0.11900
H1582       H  0.94880086  0.92504711  0.35318105     0.11700
H1583       H  0.91695047  0.96292199  0.32011671     0.12200
H1584       H  0.82778872  0.92731110  0.36692280     0.14200
C1585       C  0.91742474  0.87469705  0.58034356    -0.05800
C1586       C  0.92565184  0.90762726  0.57253927    -0.05800
C1587       C  0.91165539  0.93394743  0.58965065    -0.23900
C1588       C  0.88907079  0.92816824  0.61518029     0.18300
C1589       C  0.88047142  0.89537721  0.62365386     0.15500
C1590       C  0.89472495  0.86879797  0.60623573    -0.19000
C1591       C  0.85777231  0.88992862  0.64939362    -0.20800
C1592       C  0.84381505  0.91664257  0.66636847    -0.13400
C1593       C  0.85248211  0.94925614  0.65813247     0.03300
C1594       C  0.87509816  0.95474527  0.63242464    -0.25500
H1595       H  0.94316340  0.91323916  0.55311423     0.08400
H1596       H  0.91861585  0.95892754  0.58292185     0.12000
H1597       H  0.88810772  0.84368322  0.61280190     0.11900
H1598       H  0.85088986  0.86502993  0.65646594     0.11700
H1599       H  0.82669858  0.91184276  0.68636081     0.12200
H1600       H  0.88153865  0.97978280  0.62556938     0.14200
C1601       C  0.06332094  0.87908369  0.57306131    -0.05800
C1602       C  0.04849770  0.91043108  0.57290047    -0.05800
C1603       C  0.06129305  0.93616317  0.59151470    -0.23900
C1604       C  0.08937115  0.93118276  0.61041892     0.18300
C1605       C  0.10484083  0.90000118  0.61035954     0.15500
C1606       C  0.09166861  0.87413930  0.59186305    -0.19000
C1607       C  0.13318035  0.89519184  0.62889902    -0.20800
C1608       C  0.14618313  0.92108310  0.64716025    -0.13400
C1609       C  0.13100586  0.95228253  0.64744657     0.03300
C1610       C  0.10231791  0.95693348  0.62920608    -0.25500
H1611       H  0.02653676  0.91494971  0.55887659     0.08400
H1612       H  0.04915535  0.95994127  0.59119271     0.12000
H1613       H  0.10349055  0.85018763  0.59216904     0.11900
H1614       H  0.14533910  0.87142571  0.62923606     0.11700
H1615       H  0.16795265  0.91646421  0.66141259     0.12200
H1616       H  0.09031351  0.98068503  0.62901016     0.14200
C1617       C  0.26326970  0.81776984  0.50999160    -0.05800
C1618       C  0.24425887  0.82909342  0.53675069    -0.05800
C1619       C  0.21049103  0.82369959  0.53800447    -0.23900
C1620       C  0.19498147  0.80669219  0.51273935     0.18300
C1621       C  0.21341222  0.79609314  0.48523154     0.15500
C1622       C  0.24733413  0.80130346  0.48424414    -0.19000
C1623       C  0.19772532  0.77967814  0.45959277    -0.20800
C1624       C  0.16418575  0.77299231  0.46171771    -0.13400
C1625       C  0.14596942  0.78204555  0.48980906     0.03300
C1626       C  0.16148808  0.79939775  0.51498492    -0.25500
H1627       H  0.25525767  0.84057667  0.55776514     0.08400
H1628       H  0.19664358  0.83198325  0.55927396     0.12000
H1629       H  0.26156196  0.79148621  0.46389508     0.11900
H1630       H  0.21142365  0.77174211  0.43809347     0.11700
H1631       H  0.15266211  0.76009658  0.44167699     0.12200
H1632       H  0.14751915  0.80724561  0.53635853     0.14200
C1633       C  0.43109939  0.64416294  0.52021427    -0.05800
C1634       C  0.44971059  0.66935686  0.50491897    -0.05800
C1635       C  0.43845646  0.70186502  0.50419489    -0.23900
C1636       C  0.40813569  0.70978834  0.51847699     0.18300
C1637       C  0.39030894  0.68508820  0.53580219     0.15500
C1638       C  0.40207995  0.65242578  0.53691238    -0.19000
C1639       C  0.36020674  0.69313857  0.55035386    -0.20800
C1640       C  0.34708420  0.72469728  0.54639319    -0.13400
C1641       C  0.36344500  0.74894264  0.52729362     0.03300
C1642       C  0.39464670  0.74148861  0.51432697    -0.25500
H1643       H  0.47246801  0.66356956  0.49226073     0.08400
H1644       H  0.45279004  0.72045970  0.49124699     0.12000
H1645       H  0.38760629  0.63316013  0.54866339     0.11900
H1646       H  0.34638849  0.67479245  0.56417933     0.11700
H1647       H  0.32371322  0.72979023  0.55806899     0.12200
H1648       H  0.40776497  0.75953918  0.49951737     0.14200
C1649       C  0.25933897  0.20068073  0.51769154    -0.05800
C1650       C  0.24074028  0.19755619  0.54698140    -0.05800
C1651       C  0.20756655  0.20610373  0.54801266    -0.23900
C1652       C  0.19194469  0.21802419  0.51991728     0.18300
C1653       C  0.20987621  0.22107697  0.49022270     0.15500
C1654       C  0.24328637  0.21236716  0.48928297    -0.19000
C1655       C  0.19410880  0.23309061  0.46211274    -0.20800
C1656       C  0.16082396  0.24155356  0.46339356    -0.13400
C1657       C  0.14266045  0.23852067  0.49289806     0.03300
C1658       C  0.15865553  0.22688594  0.52114393    -0.25500
H1659       H  0.25146651  0.18963632  0.56973293     0.08400
H1660       H  0.19418366  0.20377715  0.57105592     0.12000
H1661       H  0.25715377  0.21548105  0.46659833     0.11900
H1662       H  0.20745243  0.23575872  0.43908495     0.11700
H1663       H  0.14929419  0.25041699  0.44119713     0.12200
H1664       H  0.14509524  0.22412644  0.54404417     0.14200
C1665       C  0.36660882  0.25707391  0.50044722    -0.05800
C1666       C  0.35628909  0.27912148  0.47591454    -0.05800
C1667       C  0.37142292  0.30971225  0.47184122    -0.23900
C1668       C  0.39702207  0.31896987  0.49245464     0.18300
C1669       C  0.40855324  0.29658945  0.51645003     0.15500
C1670       C  0.39333457  0.26554632  0.52019550    -0.19000
C1671       C  0.43440877  0.30614558  0.53679922    -0.20800
C1672       C  0.44791493  0.33789981  0.53407682    -0.13400
C1673       C  0.43562668  0.36073682  0.51111300     0.03300
C1674       C  0.41059884  0.35063453  0.48991614    -0.25500
H1675       H  0.33587746  0.27289734  0.46031800     0.08400
H1676       H  0.36250889  0.32648042  0.45313126     0.12000
H1677       H  0.40111897  0.24882516  0.53941540     0.11900
H1678       H  0.44383004  0.28926892  0.55514502     0.11700
H1679       H  0.46755299  0.34474789  0.55036310     0.12200
H1680       H  0.40120418  0.36758581  0.47160154     0.14200
C1681       C  0.69280577  0.23474164  0.01289183    -0.05800
C1682       C  0.68287381  0.25291680  0.04074841    -0.05800
C1683       C  0.68887912  0.28672136  0.04257004    -0.23900
C1684       C  0.70511008  0.30312229  0.01684245     0.18300
C1685       C  0.71515349  0.28540009  0.98874506     0.15500
C1686       C  0.70892311  0.25152604  0.98696818    -0.19000
C1687       C  0.73122814  0.30186236  0.96285257    -0.20800
C1688       C  0.73712462  0.33569535  0.96476354    -0.13400
C1689       C  0.72724465  0.35350367  0.99268855     0.03300
C1690       C  0.71134726  0.33699731  0.01873869    -0.25500
H1691       H  0.67054402  0.24180044  0.06151606     0.08400
H1692       H  0.68091012  0.30003431  0.06424130     0.12000
H1693       H  0.71671931  0.23799800  0.96534468     0.11900
H1694       H  0.73909047  0.28863099  0.94110189     0.11700
H1695       H  0.74944618  0.34794350  0.94437346     0.12200
H1696       H  0.70321966  0.35060287  0.04018567     0.14200
C1697       C  0.85934761  0.08165370  0.96639704    -0.05800
C1698       C  0.85625808  0.11137580  0.94887519    -0.05800
C1699       C  0.82668916  0.12901486  0.94980273    -0.23900
C1700       C  0.79964729  0.11701042  0.96800862     0.18300
C1701       C  0.80179299  0.08596633  0.98376139     0.15500
C1702       C  0.83156253  0.06850770  0.98282086    -0.19000
C1703       C  0.77461866  0.07364762  0.00148191    -0.20800
C1704       C  0.74612867  0.09262955  0.00499152    -0.13400
C1705       C  0.74439869  0.12435441  0.99114583     0.03300
C1706       C  0.77099396  0.13601143  0.97182155    -0.25500
H1707       H  0.87728113  0.12198317  0.93620562     0.08400
H1708       H  0.82537739  0.15265892  0.93732031     0.12000
H1709       H  0.83359836  0.04535965  0.99617324     0.11900
H1710       H  0.77576386  0.04973795  0.01348258     0.11700
H1711       H  0.72601798  0.08310444  0.01983743     0.12200
H1712       H  0.76967198  0.16018530  0.96036230     0.14200
C1713       C  0.26445962  0.35752135  0.01300104    -0.05800
C1714       C  0.27983953  0.34725209  0.04211396    -0.05800
C1715       C  0.28937356  0.31457172  0.04658497    -0.23900
C1716       C  0.28370038  0.29129243  0.02210070     0.18300
C1717       C  0.26865159  0.30118303  0.99252002     0.15500
C1718       C  0.25925232  0.33430840  0.98802640    -0.19000
C1719       C  0.26293906  0.27765171  0.96821617    -0.20800
C1720       C  0.27152079  0.24468110  0.97348717    -0.13400
C1721       C  0.28650015  0.23443194  0.00293850     0.03300
C1722       C  0.29255081  0.25823467  0.02709823    -0.25500
H1723       H  0.28484792  0.36462054  0.06153706     0.08400
H1724       H  0.30110910  0.30749914  0.06931265     0.12000
H1725       H  0.24760719  0.34187191  0.96539788     0.11900
H1726       H  0.25145261  0.28462470  0.94533355     0.11700
H1727       H  0.26621664  0.22690486  0.95449837     0.12200
H1728       H  0.30323448  0.25147731  0.05027655     0.14200
C1729       C  0.13806408  0.05909403  0.98262834    -0.05800
C1730       C  0.16015450  0.05421842  0.95643453    -0.05800
C1731       C  0.19215808  0.06668135  0.95815550    -0.23900
C1732       C  0.20216290  0.08419695  0.98602030     0.18300
C1733       C  0.18056653  0.08690049  0.01327707     0.15500
C1734       C  0.14905851  0.07385561  0.01156549    -0.19000
C1735       C  0.18987694  0.10462711  0.04105978    -0.20800
C1736       C  0.21925940  0.12201173  0.04081182    -0.13400
C1737       C  0.24009272  0.12092302  0.01330967     0.03300
C1738       C  0.23233514  0.10089707  0.98647015    -0.25500
H1739       H  0.15230375  0.04203809  0.93426441     0.08400
H1740       H  0.20852696  0.06392827  0.93721638     0.12000
H1741       H  0.13251157  0.07650907  0.03243523     0.11900
H1742       H  0.17359804  0.10663281  0.06217500     0.11700
H1743       H  0.22522413  0.13740986  0.06157585     0.12200
H1744       H  0.24853877  0.10037320  0.96518047     0.14200
C1745       C  0.71993302  0.80714829  0.51405507    -0.05800
C1746       C  0.73718797  0.81637956  0.54249063    -0.05800
C1747       C  0.77056235  0.80962572  0.54576661    -0.23900
C1748       C  0.78777876  0.79304180  0.52104237     0.18300
C1749       C  0.77107945  0.78320514  0.49250343     0.15500
C1750       C  0.73740797  0.79013437  0.48926084    -0.19000
C1751       C  0.78837846  0.76659073  0.46772084    -0.20800
C1752       C  0.82181676  0.76006761  0.47110553    -0.13400
C1753       C  0.83875950  0.76967413  0.49950019     0.03300
C1754       C  0.82139249  0.78613556  0.52448299    -0.25500
H1755       H  0.72535224  0.82798068  0.56313759     0.08400
H1756       H  0.78285299  0.81709133  0.56798289     0.12000
H1757       H  0.72464666  0.78211534  0.46749597     0.11900
H1758       H  0.77612091  0.75882830  0.44559373     0.11700
H1759       H  0.83445293  0.74750023  0.45127559     0.12200
H1760       H  0.83410192  0.79416418  0.54627190     0.14200
C1761       C  0.60923980  0.75400941  0.50787538    -0.05800
C1762       C  0.60945780  0.73294453  0.53530915    -0.05800
C1763       C  0.59253333  0.70310581  0.53493150    -0.23900
C1764       C  0.57568508  0.69348699  0.50678449     0.18300
C1765       C  0.57456619  0.71468757  0.47913667     0.15500
C1766       C  0.59113287  0.74524039  0.48001032    -0.19000
C1767       C  0.55783477  0.70429483  0.45095145    -0.20800
C1768       C  0.54340912  0.67277295  0.44990262    -0.13400
C1769       C  0.54568699  0.65124931  0.47699134     0.03300
C1770       C  0.56102612  0.66236482  0.50561383    -0.25500
H1771       H  0.62338463  0.73937140  0.55685420     0.08400
H1772       H  0.59351207  0.68705030  0.55628985     0.12000
H1773       H  0.59133963  0.76134406  0.45864752     0.11900
H1774       H  0.55658972  0.72019241  0.42950972     0.11700
H1775       H  0.53146536  0.66486364  0.42767197     0.12200
H1776       H  0.56228492  0.64633999  0.52700247     0.14200
C1777       C  0.73847031  0.66334776  0.99888496    -0.05800
C1778       C  0.74757304  0.68219248  0.97119236    -0.05800
C1779       C  0.74016616  0.71574361  0.96950228    -0.23900
C1780       C  0.72326477  0.73101280  0.99538408     0.18300
C1781       C  0.71496188  0.71261385  0.02384650     0.15500
C1782       C  0.72288594  0.67895065  0.02560709    -0.19000
C1783       C  0.69834329  0.72806654  0.04976935    -0.20800
C1784       C  0.68958269  0.76131202  0.04737568    -0.13400
C1785       C  0.69702216  0.77989044  0.01878114     0.03300
C1786       C  0.71431106  0.76431411  0.99307602    -0.25500
H1787       H  0.75993234  0.67081958  0.95048603     0.08400
H1788       H  0.74704807  0.72958206  0.94763658     0.12000
H1789       H  0.71568078  0.66468650  0.04712519     0.11900
H1790       H  0.69212659  0.71444076  0.07197600     0.11700
H1791       H  0.67766698  0.77200392  0.06849590     0.12200
H1792       H  0.72089779  0.77832298  0.97119552     0.14200
C1793       C  0.74382162  0.89259456  0.00402729    -0.05800
C1794       C  0.76344874  0.88711763  0.97619034    -0.05800
C1795       C  0.79334513  0.90318799  0.97243874    -0.23900
C1796       C  0.80418170  0.92476773  0.99669930     0.18300
C1797       C  0.78369406  0.93228601  0.02388476     0.15500
C1798       C  0.75320935  0.91616910  0.02732616    -0.19000
C1799       C  0.79491193  0.95452908  0.04763886    -0.20800
C1800       C  0.82674854  0.96763877  0.04527586    -0.13400
C1801       C  0.84783654  0.95841153  0.01929489     0.03300
C1802       C  0.83582294  0.93777300  0.99465545    -0.25500
H1803       H  0.75618651  0.86919226  0.95800965     0.08400
H1804       H  0.80862728  0.89763799  0.95124757     0.12000
H1805       H  0.73789238  0.92034655  0.04883544     0.11900
H1806       H  0.77944631  0.96109121  0.06839774     0.11700
H1807       H  0.83517189  0.98415354  0.06422054     0.12200
H1808       H  0.85138961  0.93121698  0.97394612     0.14200
C1809       C  0.29345416  0.77791291  0.01145404    -0.05800
C1810       C  0.30584907  0.75598414  0.03521909    -0.05800
C1811       C  0.29699921  0.72281931  0.03511920    -0.23900
C1812       C  0.27574235  0.71082880  0.01126570     0.18300
C1813       C  0.26363663  0.73210696  0.98674363     0.15500
C1814       C  0.27227008  0.76553035  0.98723204    -0.19000
C1815       C  0.24292793  0.71956094  0.96240909    -0.20800
C1816       C  0.23447118  0.68603791  0.96243140    -0.13400
C1817       C  0.24574377  0.66515116  0.98745969     0.03300
C1818       C  0.26634524  0.67780601  0.01172548    -0.25500
H1819       H  0.32107513  0.76418245  0.05503170     0.08400
H1820       H  0.30635544  0.70664646  0.05412202     0.12000
H1821       H  0.26179382  0.78221277  0.96927803     0.11900
H1822       H  0.23355016  0.73557030  0.94329300     0.11700
H1823       H  0.21888277  0.67656031  0.94330417     0.12200
H1824       H  0.27571679  0.66166138  0.03074781     0.14200
C1825       C  0.23618860  0.88211953  0.03742950    -0.05800
C1826       C  0.21323063  0.86700154  0.05895638    -0.05800
C1827       C  0.18153731  0.87952695  0.06257978    -0.23900
C1828       C  0.17216817  0.90765834  0.04502140     0.18300
C1829       C  0.19594691  0.92466645  0.02564436     0.15500
C1830       C  0.22790883  0.91205228  0.02231964    -0.19000
C1831       C  0.18677524  0.95279672  0.00806424    -0.20800
C1832       C  0.15406907  0.96253564  0.00769877    -0.13400
C1833       C  0.12978634  0.94471357  0.02524161     0.03300
C1834       C  0.13917021  0.91803324  0.04505814    -0.25500
H1835       H  0.21930268  0.84449794  0.07199464     0.08400
H1836       H  0.16399629  0.86638243  0.07798651     0.12000
H1837       H  0.24530684  0.92403746  0.00583109     0.11900
H1838       H  0.20459556  0.96643659  0.99342042     0.11700
H1839       H  0.14752363  0.98367489  0.99274413     0.12200
H1840       H  0.12068443  0.90423549  0.05868434     0.14200
C1841       C  0.33426410  0.99336673  0.26546866    -0.05800
C1842       C  0.31900555  0.96220465  0.26422844    -0.05800
C1843       C  0.28554890  0.95861266  0.27137311    -0.23900
C1844       C  0.26645504  0.98609926  0.27988442     0.18300
C1845       C  0.28124681  0.01758116  0.28085093     0.15500
C1846       C  0.31494976  0.02105473  0.27364757    -0.19000
C1847       C  0.26197177  0.04513220  0.28860333    -0.20800
C1848       C  0.22837753  0.04160689  0.29499963    -0.13400
C1849       C  0.21325902  0.01031242  0.29504027     0.03300
C1850       C  0.23273623  0.98264532  0.28685710    -0.25500
H1851       H  0.33302928  0.94038568  0.25805225     0.08400
H1852       H  0.27463641  0.93425148  0.27035562     0.12000
H1853       H  0.32618536  0.04525371  0.27496575     0.11900
H1854       H  0.27275034  0.06957087  0.28908105     0.11700
H1855       H  0.21406856  0.06363396  0.29949340     0.12200
H1856       H  0.22174594  0.95848742  0.28460827     0.14200
C1857       C  0.64263650  0.01785459  0.28079485    -0.05800
C1858       C  0.65421308  0.04689886  0.29548498    -0.05800
C1859       C  0.68713333  0.05009488  0.30403924    -0.23900
C1860       C  0.70929416  0.02438559  0.29786219     0.18300
C1861       C  0.69802455  0.99522183  0.28279935     0.15500
C1862       C  0.66480762  0.99203634  0.27451634    -0.19000
C1863       C  0.72022804  0.96983204  0.27596216    -0.20800
C1864       C  0.75325989  0.97332350  0.28372583    -0.13400
C1865       C  0.76498692  0.00189510  0.29931342     0.03300
C1866       C  0.74256031  0.02755759  0.30610696    -0.25500
H1867       H  0.63762536  0.06702916  0.30097949     0.08400
H1868       H  0.69521970  0.07267021  0.31556883     0.12000
H1869       H  0.65628262  0.96958082  0.26303662     0.11900
H1870       H  0.71215470  0.94740565  0.26414980     0.11700
H1871       H  0.76992367  0.95358032  0.27718484     0.12200
H1872       H  0.75072071  0.05050401  0.31662117     0.14200
C1873       C  0.36853929  0.83791804  0.44896088    -0.05800
C1874       C  0.36224951  0.82743582  0.41680566    -0.05800
C1875       C  0.37422767  0.84546929  0.38980420    -0.23900
C1876       C  0.39191711  0.87470784  0.39467139     0.18300
C1877       C  0.39879617  0.88483884  0.42708185     0.15500
C1878       C  0.38759835  0.86607960  0.45391339    -0.19000
C1879       C  0.41561963  0.91431532  0.43230412    -0.20800
C1880       C  0.42568327  0.93368052  0.40574622    -0.13400
C1881       C  0.41943652  0.92391842  0.37321853     0.03300
C1882       C  0.40234145  0.89429504  0.36787034    -0.25500
H1883       H  0.34700811  0.80598756  0.41267806     0.08400
H1884       H  0.36864266  0.83723744  0.36522269     0.12000
H1885       H  0.39153034  0.87481281  0.47865187     0.11900
H1886       H  0.42087895  0.92251624  0.45698248     0.11700
H1887       H  0.43883559  0.95625633  0.41088995     0.12200
H1888       H  0.39731391  0.88640867  0.34304059     0.14200
C1889       C  0.56279506  0.93695274  0.37915565    -0.05800
C1890       C  0.55399065  0.94266139  0.41216945    -0.05800
C1891       C  0.56767548  0.92372568  0.43743790    -0.23900
C1892       C  0.59031116  0.89865743  0.43015577     0.18300
C1893       C  0.60031843  0.89359597  0.39728041     0.15500
C1894       C  0.58673189  0.91284553  0.37214124    -0.19000
C1895       C  0.62335740  0.86892215  0.38997537    -0.20800
C1896       C  0.63594551  0.84899569  0.41497827    -0.13400
C1897       C  0.62561830  0.85332459  0.44764040     0.03300
C1898       C  0.60301392  0.87844087  0.45508618    -0.25500
H1899       H  0.53594985  0.96123484  0.41845399     0.08400
H1900       H  0.56005045  0.92822898  0.46259778     0.12000
H1901       H  0.59424367  0.90831154  0.34695750     0.11900
H1902       H  0.63148584  0.86490026  0.36489433     0.11700
H1903       H  0.65361815  0.83002513  0.40881018     0.12200
H1904       H  0.59597929  0.88284345  0.48031154     0.14200
C1905       C  0.39847986  0.08376723  0.36165333    -0.05800
C1906       C  0.36782120  0.09725604  0.35338847    -0.05800
C1907       C  0.34982241  0.11588785  0.37631170    -0.23900
C1908       C  0.36238471  0.12186323  0.40775067     0.18300
C1909       C  0.39276674  0.10779585  0.41641770     0.15500
C1910       C  0.41031999  0.08866433  0.39358382    -0.19000
C1911       C  0.40560836  0.11367795  0.44760218    -0.20800
C1912       C  0.38901569  0.13397894  0.46983348    -0.13400
C1913       C  0.35907326  0.14881333  0.46155207     0.03300
C1914       C  0.34560545  0.14216943  0.43043134    -0.25500
H1915       H  0.35782300  0.09351671  0.32915882     0.08400
H1916       H  0.32640012  0.12614310  0.36923447     0.12000
H1917       H  0.43387530  0.07851540  0.40040951     0.11900
H1918       H  0.42874502  0.10281261  0.45472746     0.11700
H1919       H  0.39959089  0.13768028  0.49378386     0.12200
H1920       H  0.32261863  0.15345161  0.42348783     0.14200
C1921       C  0.47870428  0.15995411  0.23898854    -0.05800
C1922       C  0.45137820  0.17829779  0.24952616    -0.05800
C1923       C  0.44809301  0.21148825  0.24057612    -0.23900
C1924       C  0.47204724  0.22690192  0.22083272     0.18300
C1925       C  0.49964707  0.20868384  0.21021926     0.15500
C1926       C  0.50283487  0.17536246  0.21932013    -0.19000
C1927       C  0.52366198  0.22412560  0.19076377    -0.20800
C1928       C  0.52106871  0.25759607  0.18283270    -0.13400
C1929       C  0.49418380  0.27661639  0.19407324     0.03300
C1930       C  0.46917514  0.26037806  0.21212073    -0.25500
H1931       H  0.43255250  0.16693494  0.26479068     0.08400
H1932       H  0.42687562  0.22512084  0.24919133     0.12000
H1933       H  0.52379287  0.16129021  0.21067319     0.11900
H1934       H  0.54480182  0.21041229  0.18203463     0.11700
H1935       H  0.54049784  0.26780429  0.16786159     0.12200
H1936       H  0.44800803  0.27426639  0.22050878     0.14200
C1937       C  0.48878220  0.73544511  0.19852415    -0.05800
C1938       C  0.46664976  0.75657917  0.18220391    -0.05800
C1939       C  0.46373422  0.78984860  0.19062683    -0.23900
C1940       C  0.48366230  0.80347276  0.21479119     0.18300
C1941       C  0.50749462  0.78349257  0.23001956     0.15500
C1942       C  0.51003431  0.74975972  0.22170924    -0.19000
C1943       C  0.52839079  0.79771012  0.25323616    -0.20800
C1944       C  0.52564157  0.83125511  0.26123876    -0.13400
C1945       C  0.50142402  0.85109193  0.24683570     0.03300
C1946       C  0.48051784  0.83691270  0.22350860    -0.25500
H1947       H  0.45159462  0.74790728  0.16241453     0.08400
H1948       H  0.44598453  0.80503995  0.17794639     0.12000
H1949       H  0.52834106  0.73459521  0.23356155     0.11900
H1950       H  0.54698196  0.78292505  0.26510946     0.11700
H1951       H  0.54220747  0.84163176  0.27903358     0.12200
H1952       H  0.46227303  0.85212522  0.21157130     0.14200
C1953       C  0.64691840  0.12471398  0.05744765    -0.05800
C1954       C  0.63308511  0.09437399  0.04800400    -0.05800
C1955       C  0.61303312  0.07611038  0.06964993    -0.23900
C1956       C  0.60641224  0.08752292  0.10147972     0.18300
C1957       C  0.62116956  0.11715680  0.11182495     0.15500
C1958       C  0.64146328  0.13518540  0.09011423    -0.19000
C1959       C  0.61512038  0.12861831  0.14368416    -0.20800
C1960       C  0.59421732  0.11123703  0.16493295    -0.13400
C1961       C  0.57867920  0.08192299  0.15493622     0.03300
C1962       C  0.58526830  0.06998466  0.12308550    -0.25500
H1963       H  0.63716957  0.08455523  0.02378955     0.08400
H1964       H  0.60237551  0.05318729  0.06130012     0.12000
H1965       H  0.65289771  0.15739921  0.09909635     0.11900
H1966       H  0.62628247  0.15128151  0.15210709     0.11700
H1967       H  0.58989797  0.12115241  0.18924129     0.12200
H1968       H  0.57404349  0.04717697  0.11514771     0.14200
C1969       C  0.64390186  0.88574706  0.06195827    -0.05800
C1970       C  0.62553626  0.91284130  0.05088483    -0.05800
C1971       C  0.60572931  0.93055751  0.07269356    -0.23900
C1972       C  0.60397566  0.92144701  0.10592733     0.18300
C1973       C  0.62298942  0.89474336  0.11743855     0.15500
C1974       C  0.64290428  0.87722662  0.09547463    -0.19000
C1975       C  0.62157573  0.88579190  0.15069243    -0.20800
C1976       C  0.60114014  0.90290535  0.17234284    -0.13400
C1977       C  0.58164999  0.92920798  0.16109488     0.03300
C1978       C  0.58338716  0.93844995  0.12778351    -0.25500
H1979       H  0.62573710  0.91992579  0.02523353     0.08400
H1980       H  0.59145476  0.95109497  0.06348482     0.12000
H1981       H  0.65764960  0.85698002  0.10457613     0.11900
H1982       H  0.63609112  0.86542533  0.15991589     0.11700
H1983       H  0.60035240  0.89526418  0.19787676     0.12200
H1984       H  0.56883587  0.95892569  0.11884765     0.14200
C1985       C  0.34900321  0.87959723  0.06015196    -0.05800
C1986       C  0.36475055  0.90829847  0.04847976    -0.05800
C1987       C  0.38766554  0.92474063  0.06787210    -0.23900
C1988       C  0.39493525  0.91291017  0.09943534     0.18300
C1989       C  0.37932276  0.88386589  0.11111198     0.15500
C1990       C  0.35670876  0.86740188  0.09142301    -0.19000
C1991       C  0.38597680  0.87202757  0.14264088    -0.20800
C1992       C  0.40696518  0.88937982  0.16299865    -0.13400
C1993       C  0.42197741  0.91890705  0.15228521     0.03300
C1994       C  0.41658635  0.93008999  0.11997697    -0.25500
H1995       H  0.35967808  0.91782967  0.02421997     0.08400
H1996       H  0.39939092  0.94687169  0.05834578     0.12000
H1997       H  0.34447107  0.84546452  0.10079484     0.11900
H1998       H  0.37428505  0.84976229  0.15190792     0.11700
H1999       H  0.41076161  0.88003311  0.18763850     0.12200
H2000       H  0.42778031  0.95291111  0.11147258     0.14200
C2001       C  0.33485074  0.13715153  0.06900516    -0.05800
C2002       C  0.33279106  0.15089534  0.10065905    -0.05800
C2003       C  0.35028025  0.13723030  0.12677520    -0.23900
C2004       C  0.37021123  0.10948630  0.12183516     0.18300
C2005       C  0.37141352  0.09459877  0.09056408     0.15500
C2006       C  0.35358661  0.10836398  0.06447051    -0.19000
C2007       C  0.39105393  0.06660927  0.08571584    -0.20800
C2008       C  0.41012642  0.05408695  0.11128310    -0.13400
C2009       C  0.40975940  0.06911581  0.14233449     0.03300
C2010       C  0.38926824  0.09664743  0.14748924    -0.25500
H2011       H  0.31769335  0.17235929  0.10529700     0.08400
H2012       H  0.34857693  0.14866365  0.15072564     0.12000
H2013       H  0.35537844  0.09728388  0.04042747     0.11900
H2014       H  0.39194804  0.05459314  0.06202137     0.11700
H2015       H  0.42502602  0.03243702  0.10678934     0.12200
H2016       H  0.38851109  0.10843687  0.17131632     0.14200
C2017       C  0.71758600  0.21107647  0.51619426    -0.05800
C2018       C  0.73516861  0.20563153  0.54540973    -0.05800
C2019       C  0.76796677  0.21534172  0.54793751    -0.23900
C2020       C  0.78404130  0.23094806  0.52152403     0.18300
C2021       C  0.76685124  0.23672528  0.49215511     0.15500
C2022       C  0.73403206  0.22664724  0.48964377    -0.19000
C2023       C  0.78279265  0.25242969  0.46569663    -0.20800
C2024       C  0.81572748  0.26149461  0.46797601    -0.13400
C2025       C  0.83341239  0.25524114  0.49682904     0.03300
C2026       C  0.81713077  0.24039331  0.52379630    -0.25500
H2027       H  0.72405509  0.19436024  0.56680414     0.08400
H2028       H  0.78073820  0.21075439  0.57070932     0.12000
H2029       H  0.72094849  0.23135630  0.46705806     0.11900
H2030       H  0.76994309  0.25722898  0.44301866     0.11700
H2031       H  0.82756009  0.27285977  0.44681008     0.12200
H2032       H  0.83047379  0.23501263  0.54607393     0.14200
C2033       C  0.62728142  0.15612688  0.44972391    -0.05800
C2034       C  0.64559003  0.15147491  0.42051592    -0.05800
C2035       C  0.63209985  0.13471714  0.39379174    -0.23900
C2036       C  0.59991105  0.12250980  0.39555305     0.18300
C2037       C  0.58140284  0.12707130  0.42466920     0.15500
C2038       C  0.59516191  0.14348147  0.45132909    -0.19000
C2039       C  0.54918665  0.11526456  0.42681395    -0.20800
C2040       C  0.53545543  0.09860963  0.40051397    -0.13400
C2041       C  0.55356535  0.09348939  0.37144012     0.03300
C2042       C  0.58582138  0.10579672  0.36892526    -0.25500
H2043       H  0.67011279  0.16135671  0.41785930     0.08400
H2044       H  0.64672481  0.13162272  0.37164417     0.12000
H2045       H  0.58034450  0.14614496  0.47323006     0.11900
H2046       H  0.53460292  0.11879224  0.44892768     0.11700
H2047       H  0.51051191  0.08964004  0.40294425     0.12200
H2048       H  0.60008495  0.10172528  0.34669432     0.14200
C2049       C  0.60647460  0.25681800  0.49246268    -0.05800
C2050       C  0.57532514  0.25916954  0.50719238    -0.05800
C2051       C  0.55637575  0.28758407  0.50277261    -0.23900
C2052       C  0.56842710  0.31392871  0.48354146     0.18300
C2053       C  0.59877494  0.31079718  0.46686595     0.15500
C2054       C  0.61743203  0.28214341  0.47122018    -0.19000
C2055       C  0.61078929  0.33709039  0.44753781    -0.20800
C2056       C  0.59402904  0.36717290  0.44660687    -0.13400
C2057       C  0.56511371  0.37120487  0.46498243     0.03300
C2058       C  0.55164873  0.34402132  0.48221348    -0.25500
H2059       H  0.56639201  0.23983843  0.52346593     0.08400
H2060       H  0.53297507  0.28952917  0.51548230     0.12000
H2061       H  0.64112580  0.28008341  0.45908637     0.11900
H2062       H  0.63391872  0.33489779  0.43440444     0.11700
H2063       H  0.60466974  0.38780826  0.43321700     0.12200
H2064       H  0.52895041  0.34687639  0.49605628     0.14200
C2065       C  0.22513267  0.01491097  0.69780276    -0.05800
C2066       C  0.24600369  0.03926255  0.68413323    -0.05800
C2067       C  0.27880606  0.04144966  0.69348805    -0.23900
C2068       C  0.29162746  0.01932007  0.71657218     0.18300
C2069       C  0.27163668  0.99369969  0.72923810     0.15500
C2070       C  0.23884669  0.99133712  0.71935386    -0.19000
C2071       C  0.28475394  0.97101211  0.75174228    -0.20800
C2072       C  0.31756437  0.97341765  0.76116398    -0.13400
C2073       C  0.33756986  0.99893353  0.74877292     0.03300
C2074       C  0.32425860  0.02208445  0.72679715    -0.25500
H2075       H  0.23751867  0.05679008  0.66612685     0.08400
H2076       H  0.29412103  0.06066820  0.68279902     0.12000
H2077       H  0.22355402  0.97170459  0.72930735     0.11900
H2078       H  0.26975473  0.95121084  0.76176397     0.11700
H2079       H  0.32738695  0.95527508  0.77803469     0.12200
H2080       H  0.33965470  0.04158002  0.71676871     0.14200
C2081       C  0.64698050  0.00688377  0.76069043    -0.05800
C2082       C  0.66567071  0.98070154  0.77347093    -0.05800
C2083       C  0.69896332  0.97757778  0.76533249    -0.23900
C2084       C  0.71399860  0.00017798  0.74366478     0.18300
C2085       C  0.69567469  0.02711432  0.73163477     0.15500
C2086       C  0.66250467  0.03063435  0.74063486    -0.19000
C2087       C  0.71041408  0.04939840  0.70967538    -0.20800
C2088       C  0.74296975  0.04520684  0.69957593    -0.13400
C2089       C  0.76199530  0.01860241  0.71137356     0.03300
C2090       C  0.74677805  0.99597201  0.73331151    -0.25500
H2091       H  0.65426846  0.96211741  0.78907403     0.08400
H2092       H  0.71264159  0.95689197  0.77511078     0.12000
H2093       H  0.64827431  0.05069024  0.73032206     0.11900
H2094       H  0.69659285  0.07001081  0.69992703     0.11700
H2095       H  0.75237685  0.06307094  0.68225760     0.12200
H2096       H  0.76068797  0.97518935  0.74258986     0.14200
C2097       C  0.41524204  0.08753744  0.65785309    -0.05800
C2098       C  0.38243197  0.07848416  0.65371700    -0.05800
C2099       C  0.36266150  0.09546663  0.63166765    -0.23900
C2100       C  0.37532422  0.12203052  0.61336111     0.18300
C2101       C  0.40819532  0.13205146  0.61774484     0.15500
C2102       C  0.42815091  0.11463977  0.64010907    -0.19000
C2103       C  0.42039963  0.15883156  0.59920096    -0.20800
C2104       C  0.40059419  0.17460809  0.57584954    -0.13400
C2105       C  0.36804370  0.16429955  0.57090063     0.03300
C2106       C  0.35563983  0.13813942  0.59023017    -0.25500
H2107       H  0.37217145  0.05785802  0.66741282     0.08400
H2108       H  0.33748412  0.08759091  0.62871440     0.12000
H2109       H  0.45339919  0.12203248  0.64370968     0.11900
H2110       H  0.44539450  0.16721170  0.60233553     0.11700
H2111       H  0.41084759  0.19484273  0.56167475     0.12200
H2112       H  0.33091323  0.12929857  0.58648812     0.14200
C2113       C  0.61080912  0.15954939  0.55987735    -0.05800
C2114       C  0.59514389  0.13133916  0.54781816    -0.05800
C2115       C  0.57910929  0.10925277  0.56910170    -0.23900
C2116       C  0.57862946  0.11480625  0.60305790     0.18300
C2117       C  0.59395768  0.14338963  0.61549033     0.15500
C2118       C  0.60995507  0.16558212  0.59385471    -0.19000
C2119       C  0.59365824  0.14887413  0.64941690    -0.20800
C2120       C  0.57900580  0.12601698  0.67086563    -0.13400
C2121       C  0.56404305  0.09714303  0.65898816     0.03300
C2122       C  0.56368215  0.09195643  0.62479580    -0.25500
H2123       H  0.59661142  0.12546846  0.52203116     0.08400
H2124       H  0.56777824  0.08739204  0.55904948     0.12000
H2125       H  0.62222896  0.18717743  0.60341511     0.11900
H2126       H  0.60506223  0.17071244  0.65944420     0.11700
H2127       H  0.57937005  0.13111883  0.69693224     0.12200
H2128       H  0.55217821  0.07001093  0.61509372     0.14200
C2129       C  0.57156398  0.92626192  0.65411239    -0.05800
C2130       C  0.60203081  0.91272942  0.66274142    -0.05800
C2131       C  0.61920879  0.89240435  0.64114331    -0.23900
C2132       C  0.60631018  0.88495473  0.61037358     0.18300
C2133       C  0.57568236  0.89805995  0.60119130     0.15500
C2134       C  0.55845155  0.91886127  0.62308624    -0.19000
C2135       C  0.56286538  0.88971515  0.57047823    -0.20800
C2136       C  0.58064566  0.86939809  0.54887457    -0.13400
C2137       C  0.61187449  0.85725756  0.55728104     0.03300
C2138       C  0.62382430  0.86458297  0.58875463    -0.25500
H2139       H  0.61273315  0.91791888  0.68638410     0.08400
H2140       H  0.64266844  0.88248529  0.64856351     0.12000
H2141       H  0.53471700  0.92862692  0.61633442     0.11900
H2142       H  0.53914612  0.89899638  0.56308258     0.11700
H2143       H  0.56975202  0.86366839  0.52558586     0.12200
H2144       H  0.64676918  0.85425778  0.59697410     0.14200
C2145       C  0.41683383  0.92934763  0.65048042    -0.05800
C2146       C  0.38316637  0.92498308  0.65662699    -0.05800
C2147       C  0.36383048  0.90717619  0.63503355    -0.23900
C2148       C  0.37783348  0.89305755  0.60690176     0.18300
C2149       C  0.41154960  0.89774200  0.59997099     0.15500
C2150       C  0.43096939  0.91610993  0.62177851    -0.19000
C2151       C  0.42516163  0.88353382  0.57162726    -0.20800
C2152       C  0.40564314  0.86488878  0.55049591    -0.13400
C2153       C  0.37203858  0.85971053  0.55729346     0.03300
C2154       C  0.35856315  0.87398323  0.58591042    -0.25500
H2155       H  0.37178549  0.93528622  0.67845069     0.08400
H2156       H  0.33795978  0.90411428  0.64057610     0.12000
H2157       H  0.45700230  0.91919296  0.61703942     0.11900
H2158       H  0.45093194  0.88684601  0.56575192     0.11700
H2159       H  0.41716282  0.85490132  0.52873642     0.12200
H2160       H  0.33315239  0.86981877  0.59258137     0.14200
C2161       C  0.48468109  0.15902997  0.77740395    -0.05800
C2162       C  0.45611483  0.17538779  0.76720693    -0.05800
C2163       C  0.45244291  0.20926984  0.77163682    -0.23900
C2164       C  0.47726650  0.22761954  0.78636077     0.18300
C2165       C  0.50631475  0.21174314  0.79640878     0.15500
C2166       C  0.50984890  0.17746483  0.79202732    -0.19000
C2167       C  0.53141639  0.23055741  0.81019775    -0.20800
C2168       C  0.52779415  0.26468031  0.81396492    -0.13400
C2169       C  0.49853360  0.28077231  0.80471948     0.03300
C2170       C  0.47352714  0.26168269  0.79076578    -0.25500
H2171       H  0.43649426  0.16194513  0.75557278     0.08400
H2172       H  0.43016525  0.22113889  0.76344238     0.12000
H2173       H  0.53193844  0.16518019  0.80017670     0.11900
H2174       H  0.55414067  0.21897619  0.81755120     0.11700
H2175       H  0.54853929  0.27790539  0.82338185     0.12200
H2176       H  0.45119588  0.27363356  0.78276029     0.14200
C2177       C  0.49856015  0.84794827  0.76024282    -0.05800
C2178       C  0.52926050  0.83244109  0.75659387    -0.05800
C2179       C  0.53274261  0.79870583  0.76269267    -0.23900
C2180       C  0.50563153  0.77983187  0.77270922     0.18300
C2181       C  0.47445488  0.79482136  0.77504128     0.15500
C2182       C  0.47099858  0.82864933  0.76842409    -0.19000
C2183       C  0.44732874  0.77588591  0.78466251    -0.20800
C2184       C  0.45103637  0.74255007  0.79248273    -0.13400
C2185       C  0.48219053  0.72733249  0.79137200     0.03300
C2186       C  0.50925797  0.74632790  0.78074751    -0.25500
H2187       H  0.55090546  0.84657363  0.74994093     0.08400
H2188       H  0.55679926  0.78758169  0.76041538     0.12000
H2189       H  0.44715203  0.84015008  0.77121376     0.11900
H2190       H  0.42312242  0.78683051  0.78602115     0.11700
H2191       H  0.42894637  0.72904711  0.79827783     0.12200
H2192       H  0.53318436  0.73486143  0.77858772     0.14200
C2193       C  0.40616021  0.06626471  0.87716646    -0.05800
C2194       C  0.41421780  0.05737990  0.90963781    -0.05800
C2195       C  0.39752940  0.07091214  0.93629285    -0.23900
C2196       C  0.37231710  0.09354632  0.93112568     0.18300
C2197       C  0.36319576  0.10194189  0.89866534     0.15500
C2198       C  0.38008121  0.08815857  0.87185937    -0.19000
C2199       C  0.33786040  0.12461371  0.89362578    -0.20800
C2200       C  0.32267635  0.13974214  0.92042117    -0.13400
C2201       C  0.33242516  0.13226683  0.95261256     0.03300
C2202       C  0.35666491  0.10855717  0.95790804    -0.25500
H2203       H  0.43391907  0.04025504  0.91466858     0.08400
H2204       H  0.40472249  0.06406346  0.96095459     0.12000
H2205       H  0.37337337  0.09500296  0.84704837     0.11900
H2206       H  0.33025977  0.13113973  0.86901583     0.11700
H2207       H  0.30346656  0.15761696  0.91602435     0.12200
H2208       H  0.36427379  0.10286245  0.98269879     0.14200
C2209       C  0.40774202  0.92148581  0.86687910    -0.05800
C2210       C  0.40046376  0.88814943  0.86118281    -0.05800
C2211       C  0.37868840  0.87107297  0.88180412    -0.23900
C2212       C  0.36332794  0.88722755  0.90817553     0.18300
C2213       C  0.37028552  0.92077314  0.91400857     0.15500
C2214       C  0.39287989  0.93763189  0.89363342    -0.19000
C2215       C  0.35411514  0.93694261  0.93978900    -0.20800
C2216       C  0.33232940  0.91973862  0.96045877    -0.13400
C2217       C  0.32667041  0.88564991  0.95645209     0.03300
C2218       C  0.34152301  0.87011146  0.92901514    -0.25500
H2219       H  0.41164423  0.87531363  0.84065684     0.08400
H2220       H  0.37367614  0.84529722  0.87696048     0.12000
H2221       H  0.39801439  0.96351920  0.89783909     0.11900
H2222       H  0.35856482  0.96289792  0.94422418     0.11700
H2223       H  0.32074996  0.93348802  0.97995013     0.12200
H2224       H  0.33735093  0.84441055  0.92382841     0.14200
C2225       C  0.64925940  0.87277580  0.95110990    -0.05800
C2226       C  0.66392920  0.87314643  0.91981912    -0.05800
C2227       C  0.64711514  0.88617245  0.89293463    -0.23900
C2228       C  0.61517403  0.89844711  0.89697632     0.18300
C2229       C  0.60020736  0.89765287  0.92851661     0.15500
C2230       C  0.61751390  0.88519572  0.95544053    -0.19000
C2231       C  0.56813593  0.90919309  0.93260079    -0.20800
C2232       C  0.55127334  0.92219583  0.90590844    -0.13400
C2233       C  0.56617700  0.92420792  0.87456599     0.03300
C2234       C  0.59805329  0.91171506  0.87016377    -0.25500
H2235       H  0.68847933  0.86353910  0.91630753     0.08400
H2236       H  0.65900155  0.88650588  0.86900565     0.12000
H2237       H  0.60613147  0.88453004  0.97963001     0.11900
H2238       H  0.55617231  0.90842842  0.95649810     0.11700
H2239       H  0.52658843  0.93122702  0.90999315     0.12200
H2240       H  0.60985073  0.91315850  0.84620859     0.14200
C2241       C  0.56652223  0.07533247  0.87713243    -0.05800
C2242       C  0.56381656  0.06307628  0.90941387    -0.05800
C2243       C  0.58158631  0.07730901  0.93466626    -0.23900
C2244       C  0.60249209  0.10398944  0.92812611     0.18300
C2245       C  0.60526710  0.11692814  0.89592163     0.15500
C2246       C  0.58722918  0.10254024  0.87059435    -0.19000
C2247       C  0.62623543  0.14381464  0.88970602    -0.20800
C2248       C  0.64471216  0.15720730  0.91514699    -0.13400
C2249       C  0.64251030  0.14378102  0.94701686     0.03300
C2250       C  0.62091979  0.11764471  0.95334567    -0.25500
H2251       H  0.54823924  0.04213003  0.91517672     0.08400
H2252       H  0.57926232  0.06718197  0.95928156     0.12000
H2253       H  0.58949693  0.11241225  0.84586381     0.11900
H2254       H  0.62860075  0.15420041  0.86520171     0.11700
H2255       H  0.66118477  0.17757616  0.90982649     0.12200
H2256       H  0.61817589  0.10809370  0.97801858     0.14200
loop_ 
_geom_bond_atom_site_label_1 
_geom_bond_atom_site_label_2 
_geom_bond_distance 
_geom_bond_site_symmetry_2 
_ccdc_geom_bond_type 
O1           C12   1.293       .  A
O1          Eu37   2.463   1_545  S
O2           C13   1.295       .  A
O2          Eu36   2.478       .  S
O3           C14   1.295       .  A
O3           Eu9   2.483       .  S
O4           C15   1.294       .  A
O4           Eu9   2.476       .  S
O5           C15   1.291       .  A
O5          Eu39   2.453       .  S
O6           C14   1.289   1_565  A
O6          Eu38   2.446       .  S
O7           C13   1.292       .  A
O7           Eu9   2.459       .  S
O8           C12   1.289       .  A
O8           Eu9   2.441       .  S
Eu9          O19   2.363       .  S
Eu9          O11   2.354       .  S
Eu9          O10   2.349       .  S
Eu9          O17   2.360       .  S
O10         Eu39   2.358       .  S
O10         Eu36   2.359       .  S
O11         Eu37   2.348   1_545  S
O11         Eu38   2.338   1_545  S
C12        C2241   1.479       .  S
C13        C2121   1.493       .  S
C14        C2081   1.482       .  S
C15        C2161   1.484       .  S
H16          O17   0.965       .  S
O17         Eu38   2.369   1_545  S
O17         Eu36   2.365       .  S
H18          O19   0.967       .  S
O19         Eu37   2.346   1_545  S
O19         Eu39   2.349       .  S
O20          C43   1.295       .  A
O20         Eu36   2.485   1_565  S
O21          C44   1.292       .  A
O21         Eu37   2.470       .  S
O22          C45   1.291       .  A
O22         Eu38   2.447       .  S
O23          C46   1.289       .  A
O23         Eu39   2.446       .  S
O24          C47   1.294       .  A
O24         Eu39   2.478       .  S
O25          C48   1.295       .  A
O25         Eu38   2.486       .  S
O26          C49   1.293       .  A
O26         Eu40   2.467       .  S
O27          C50   1.292       .  A
O27         Eu40   2.468       .  S
O28          C49   1.289       .  A
O28         Eu38   2.440       .  S
O29          C50   1.291   1_545  A
O29         Eu39   2.459       .  S
O30          C45   1.295       .  A
O30         Eu36   2.484   1_565  S
O31          C48   1.286       .  A
O31         Eu37   2.426       .  S
O32          C47   1.284       .  A
O32         Eu37   2.412   1_545  S
O33          C46   1.295       .  A
O33         Eu36   2.486       .  S
O34          C43   1.288       .  A
O34         Eu40   2.435       .  S
O35          C44   1.290       .  A
O35         Eu40   2.450       .  S
Eu36         O54   2.361       .  S
Eu36         O42   2.357   1_545  S
Eu37         O41   2.346       .  S
Eu37         O52   2.339       .  S
Eu38         O52   2.349       .  S
Eu38         O42   2.352       .  S
Eu39         O41   2.344   1_545  S
Eu39         O54   2.360       .  S
Eu40         O41   2.344       .  S
Eu40         O52   2.351       .  S
Eu40         O54   2.358   1_565  S
Eu40         O42   2.348       .  S
C43        C2145   1.475       .  S
C44        C2209   1.475       .  S
C45        C2129   1.485       .  S
C46        C2097   1.472       .  S
C47        C2193   1.479       .  S
C48        C2233   1.482       .  S
C49        C2177   1.481       .  S
C50        C2073   1.478       .  S
H51          O52   0.966       .  S
H53          O54   0.965       .  S
C55          C56   1.546       .  S
C55          C61   1.530       .  S
C55          C59   1.546       .  S
C55        C2017   1.533       .  S
C56          H63   1.081       .  S
C56          C57   1.365       .  D
C57          C58   1.541       .  S
C57        C2113   1.488       .  S
C58          C62   1.537       .  S
C58          C60   1.546       .  S
C58          H64   1.106       .  S
C59          H65   1.085       .  S
C59          C60   1.375       .  D
C60        C2033   1.500       .  S
C61          H66   1.087       .  S
C61          C62   1.361       .  D
C62        C2049   1.482       .  S
O67          C78   1.290       .  A
O67        Eu103   2.444       .  S
O68          C79   1.299       .  A
O68        Eu102   2.508       .  S
O69          C80   1.292       .  A
O69         Eu75   2.461       .  S
O70          C81   1.293       .  A
O70         Eu75   2.464       .  S
O71          C81   1.291       .  A
O71        Eu105   2.454       .  S
O72          C80   1.292   1_565  A
O72        Eu104   2.462       .  S
O73          C79   1.289       .  A
O73         Eu75   2.439       .  S
O74          C78   1.293       .  A
O74         Eu75   2.471       .  S
Eu75         O85   2.354       .  S
Eu75         O77   2.342       .  S
Eu75         O76   2.361       .  S
Eu75         O83   2.354       .  S
O76        Eu105   2.366       .  S
O76        Eu102   2.355       .  S
O77        Eu103   2.339       .  S
O77        Eu104   2.350   1_545  S
C78        C2041   1.479       .  S
C79        C1961   1.493       .  S
C80        C1857   1.483       .  S
C81        C1921   1.478       .  S
H82          O83   0.968       .  S
O83        Eu104   2.355   1_545  S
O83        Eu102   2.365       .  S
H84          O85   0.966       .  S
O85        Eu103   2.355       .  S
O85        Eu105   2.363       .  S
O86         C109   1.296       .  A
O86        Eu102   2.485   1_565  S
O87         C110   1.287       .  A
O87        Eu103   2.422   1_565  S
O88         C111   1.289       .  A
O88        Eu104   2.440       .  S
O89         C112   1.292       .  A
O89        Eu105   2.460       .  S
O90         C113   1.293       .  A
O90        Eu105   2.469       .  S
O91         C114   1.292       .  A
O91        Eu104   2.457       .  S
O92         C115   1.292       .  A
O92        Eu106   2.465       .  S
O93         C116   1.293       .  A
O93        Eu106   2.464       .  S
O94         C115   1.294       .  A
O94        Eu104   2.477       .  S
O95         C116   1.294   1_545  A
O95        Eu105   2.476       .  S
O96         C111   1.294       .  A
O96        Eu102   2.468   1_565  S
O97         C114   1.294       .  A
O97        Eu103   2.473   1_565  S
O98         C113   1.294       .  A
O98        Eu103   2.474       .  S
O99         C112   1.296       .  A
O99        Eu102   2.478       .  S
O100        C109   1.290       .  A
O100       Eu106   2.440       .  S
O101        C110   1.296       .  A
O101       Eu106   2.485       .  S
Eu102       O120   2.377       .  S
Eu102       O108   2.354   1_545  S
Eu103       O107   2.346       .  S
Eu103       O118   2.369   1_545  S
Eu104       O118   2.347       .  S
Eu104       O108   2.344       .  S
Eu105       O107   2.347       .  S
Eu105       O120   2.353       .  S
Eu106       O107   2.347   1_565  S
Eu106       O118   2.352       .  S
Eu106       O120   2.361   1_565  S
Eu106       O108   2.348       .  S
C109       C1993   1.483       .  S
C110       C1881   1.483       .  S
C111       C1977   1.479       .  S
C112       C2009   1.488       .  S
C113       C1905   1.491       .  S
C114       C1889   1.489       .  S
C115       C1945   1.488       .  S
C116       C1841   1.494       .  S
H117        O118   0.969       .  S
H119        O120   0.963   1_565  S
C121        C122   1.531   1_554  S
C121        C127   1.515       .  S
C121        C125   1.543       .  S
C121       C1809   1.518       .  S
C122        H129   1.081       .  S
C122        C123   1.376       .  D
C123        C124   1.558   1_556  S
C123       C2217   1.511       .  S
C124        C128   1.552       .  S
C124        C126   1.539       .  S
C124        H130   1.104       .  S
C125        H131   1.082       .  S
C125        C126   1.368       .  D
C126       C1985   1.485       .  S
C127        H132   1.087       .  S
C127        C128   1.356       .  D
C128       C1825   1.490       .  S
C133        C134   1.541       .  S
C133        C139   1.531       .  S
C133        C137   1.540   1_554  S
C133       C1785   1.527       .  S
C134        H141   1.080       .  S
C134        C135   1.368       .  D
C135        C136   1.537       .  S
C135       C1969   1.482       .  S
C136        C140   1.531       .  S
C136        C138   1.536   1_554  S
C136        H142   1.110       .  S
C137        H143   1.086       .  S
C137        C138   1.365       .  D
C138       C2225   1.472       .  S
C139        H144   1.087       .  S
C139        C140   1.362       .  D
C140       C1793   1.469       .  S
C145        C146   1.538       .  S
C145        C151   1.530       .  S
C145        C149   1.546       .  S
C145       C1745   1.539       .  S
C146        H153   1.086       .  S
C146        C147   1.370       .  D
C147        C148   1.542       .  S
C147       C1897   1.482       .  S
C148        C152   1.540       .  S
C148        C150   1.544       .  S
C148        H154   1.108       .  S
C149        H155   1.077       .  S
C149        C150   1.373       .  D
C150       C2137   1.506       .  S
C151        H156   1.087       .  S
C151        C152   1.363       .  D
C152       C1761   1.478       .  S
C157        C158   1.548       .  S
C157        C163   1.532       .  S
C157        C161   1.529   1_554  S
C157       C1721   1.525       .  S
C158        H165   1.081       .  S
C158        C159   1.373       .  D
C159        C160   1.545       .  S
C159       C2001   1.495       .  S
C160        C164   1.530       .  S
C160        C162   1.538   1_554  S
C160        H166   1.110       .  S
C161        H167   1.087       .  S
C161        C162   1.361       .  D
C162       C2201   1.472       .  S
C163        H168   1.087       .  S
C163        C164   1.362       .  D
C164       C1737   1.464       .  S
C169        C170   1.533   1_554  S
C169        C175   1.533       .  S
C169        C173   1.542       .  S
C169       C1681   1.523       .  S
C170        H177   1.087       .  S
C170        C171   1.362       .  D
C171        C172   1.545       .  S
C171       C2249   1.477       .  S
C172        C176   1.546       .  S
C172        C174   1.552   1_556  S
C172        H178   1.107       .  S
C173        H179   1.076       .  S
C173        C174   1.371       .  D
C174       C1953   1.510       .  S
C175        H180   1.086       .  S
C175        C176   1.363   1_554  D
C176       C1705   1.491       .  S
C181        C182   1.541       .  S
C181        C187   1.526       .  S
C181        C185   1.550       .  S
C181       C1649   1.536       .  S
C182        H189   1.085       .  S
C182        C183   1.372       .  D
C183        C184   1.552       .  S
C183       C1913   1.497       .  S
C184        C188   1.540       .  S
C184        C186   1.542       .  S
C184        H190   1.109       .  S
C185        H191   1.080       .  S
C185        C186   1.373       .  D
C186       C2105   1.499       .  S
C187        H192   1.087       .  S
C187        C188   1.360       .  D
C188       C1665   1.480       .  S
C193        C194   1.543       .  S
C193        C199   1.526       .  S
C193        C197   1.528       .  S
C193       C1617   1.522       .  S
C194        H201   1.081       .  S
C194        C195   1.374       .  D
C195        C196   1.548       .  S
C195       C2153   1.505       .  S
C196        C200   1.550       .  S
C196        C198   1.546       .  S
C196        H202   1.105       .  S
C197        H203   1.087       .  S
C197        C198   1.360       .  D
C198       C1873   1.473       .  S
C199        H204   1.085       .  S
C199        C200   1.366       .  D
C200       C1641   1.497       .  S
O205        C216   1.298       .  A
O205       Eu241   2.496       .  S
O206        C217   1.283   1_455  A
O206       Eu240   2.410       .  S
O207        C218   1.288       .  A
O207       Eu213   2.438       .  S
O208        C219   1.290       .  A
O208       Eu213   2.450       .  S
O209        C219   1.291       .  A
O209       Eu243   2.456       .  S
O210        C218   1.291       .  A
O210       Eu242   2.459       .  S
O211        C217   1.295       .  A
O211       Eu213   2.483       .  S
O212        C216   1.287       .  A
O212       Eu213   2.427       .  S
Eu213       O223   2.352       .  S
Eu213       O215   2.362       .  S
Eu213       O214   2.327       .  S
Eu213       O221   2.340       .  S
O214       Eu243   2.353       .  S
O214       Eu240   2.348   1_655  S
O215       Eu241   2.338       .  S
O215       Eu242   2.329       .  S
C216       C1753   1.487       .  S
C217       C1457   1.482       .  S
C218       C1569   1.459       .  S
C219       C1537   1.481       .  S
H220        O221   0.964       .  S
O221       Eu242   2.373       .  S
O221       Eu240   2.342   1_655  S
H222        O223   0.965       .  S
O223       Eu241   2.365       .  S
O223       Eu243   2.356       .  S
O224        C247   1.284       .  A
O224       Eu240   2.417       .  S
O225        C248   1.295       .  A
O225       Eu241   2.473       .  S
O226        C249   1.285       .  A
O226       Eu242   2.413   1_455  S
O227        C250   1.292       .  A
O227       Eu243   2.454   1_455  S
O228        C251   1.298       .  A
O228       Eu243   2.499       .  S
O229        C252   1.294       .  A
O229       Eu242   2.468       .  S
O230        C253   1.292       .  A
O230       Eu244   2.457       .  S
O231        C254   1.295       .  A
O231       Eu244   2.473       .  S
O232        C253   1.293       .  A
O232       Eu242   2.464   1_455  S
O233        C254   1.293       .  A
O233       Eu243   2.464   1_455  S
O234        C249   1.295       .  A
O234       Eu240   2.479       .  S
O235        C252   1.294       .  A
O235       Eu241   2.476       .  S
O236        C251   1.289       .  A
O236       Eu241   2.437       .  S
O237        C250   1.293       .  A
O237       Eu240   2.468       .  S
O238        C247   1.294       .  A
O238       Eu244   2.476       .  S
O239        C248   1.287   1_455  A
O239       Eu244   2.426       .  S
Eu240       O258   2.355       .  S
Eu240       O246   2.345       .  S
Eu241       O245   2.367       .  S
Eu241       O256   2.347       .  S
Eu242       O256   2.339       .  S
Eu242       O246   2.350   1_655  S
Eu243       O245   2.345       .  S
Eu243       O258   2.374   1_655  S
Eu244       O245   2.365   1_455  S
Eu244       O256   2.361   1_455  S
Eu244       O258   2.336       .  S
Eu244       O246   2.337       .  S
C247       C1625   1.476       .  S
C248       C1473   1.475   1_655  S
C249       C1553   1.477       .  S
C250       C1489   1.478       .  S
C251       C1521   1.486       .  S
C252       C1585   1.497       .  S
C253       C1601   1.484       .  S
C254       C1505   1.487       .  S
H255        O256   0.965       .  S
H257        O258   0.970       .  S
O259        C270   1.293       .  A
O259       Eu295   2.470       .  S
O260        C271   1.295   1_455  A
O260       Eu294   2.481       .  S
O261        C272   1.295       .  A
O261       Eu267   2.483       .  S
O262        C273   1.292       .  A
O262       Eu267   2.459       .  S
O263        C273   1.292       .  A
O263       Eu297   2.459       .  S
O264        C272   1.293       .  A
O264       Eu296   2.463       .  S
O265        C271   1.284       .  A
O265       Eu267   2.411       .  S
O266        C270   1.290       .  A
O266       Eu267   2.447       .  S
Eu267       O277   2.350       .  S
Eu267       O269   2.336       .  S
Eu267       O268   2.361       .  S
Eu267       O275   2.362       .  S
O268       Eu297   2.360       .  S
O268       Eu294   2.354   1_655  S
O269       Eu295   2.340       .  S
O269       Eu296   2.357       .  S
C270       C2025   1.484       .  S
C271       C1297   1.474       .  S
C272       C1329   1.497       .  S
C273       C1425   1.478       .  S
H274        O275   0.972       .  S
O275       Eu296   2.334       .  S
O275       Eu294   2.346   1_655  S
H276        O277   0.962       .  S
O277       Eu295   2.347       .  S
O277       Eu297   2.355       .  S
O278        C301   1.293       .  A
O278       Eu294   2.464       .  S
O279        C302   1.287       .  A
O279       Eu295   2.431       .  S
O280        C303   1.292       .  A
O280       Eu296   2.472   1_455  S
O281        C304   1.299       .  A
O281       Eu297   2.506   1_455  S
O282        C305   1.297       .  A
O282       Eu297   2.494       .  S
O283        C306   1.288       .  A
O283       Eu296   2.431       .  S
O284        C307   1.297       .  A
O284       Eu298   2.495       .  S
O285        C308   1.299       .  A
O285       Eu298   2.500       .  S
O286        C307   1.289       .  A
O286       Eu296   2.440   1_455  S
O287        C308   1.292       .  A
O287       Eu297   2.456   1_455  S
O288        C303   1.290       .  A
O288       Eu294   2.448       .  S
O289        C306   1.294       .  A
O289       Eu295   2.470       .  S
O290        C305   1.290       .  A
O290       Eu295   2.446       .  S
O291        C304   1.285       .  A
O291       Eu294   2.412       .  S
O292        C301   1.295       .  A
O292       Eu298   2.476       .  S
O293        C302   1.296   1_455  A
O293       Eu298   2.485       .  S
Eu294       O312   2.364       .  S
Eu294       O300   2.344       .  S
Eu295       O299   2.358       .  S
Eu295       O310   2.362       .  S
Eu296       O310   2.356       .  S
Eu296       O300   2.346   1_655  S
Eu297       O299   2.362       .  S
Eu297       O312   2.347   1_655  S
Eu298       O299   2.354   1_455  S
Eu298       O310   2.364   1_455  S
Eu298       O312   2.363       .  S
Eu298       O300   2.364       .  S
C301       C1657   1.490       .  S
C302       C1313   1.474       .  S
C303       C1377   1.487       .  S
C304       C1449   1.481       .  S
C305       C1409   1.489       .  S
C306       C1353   1.478       .  S
C307       C1361   1.486       .  S
C308       C1401   1.498       .  S
H309        O310   0.966       .  S
H311        O312   0.970       .  S
C313        C314   1.539       .  S
C313        C319   1.523       .  S
C313        C317   1.527       .  S
C313       C1265   1.518       .  S
C314        H321   1.085       .  S
C314        C315   1.366       .  D
C315        C316   1.546       .  S
C315       C1345   1.485       .  S
C316        C320   1.551       .  S
C316        C318   1.556       .  S
C316        H322   1.107       .  S
C317        H323   1.082       .  S
C317        C318   1.369       .  D
C318       C1529   1.503       .  S
C319        H324   1.086       .  S
C319        C320   1.364       .  D
C320       C1289   1.491       .  S
C325        C326   1.535       .  S
C325        C331   1.531       .  S
C325        C329   1.531       .  S
C325       C1233   1.532       .  S
C326        H333   1.080       .  S
C326        C327   1.369       .  D
C327        C328   1.555       .  S
C327       C1513   1.499       .  S
C328        C332   1.547       .  S
C328        C330   1.551       .  S
C328        H334   1.108       .  S
C329        H335   1.085       .  S
C329        C330   1.369       .  D
C330       C1369   1.496       .  S
C331        H336   1.086       .  S
C331        C332   1.367       .  D
C332       C1249   1.494       .  S
C337        C338   1.538   1_545  S
C337        C343   1.529       .  S
C337        C341   1.543       .  S
C337       C1865   1.529       .  S
C338        H345   1.083       .  S
C338        C339   1.372       .  D
C339        C340   1.542   1_565  S
C339       C1577   1.493       .  S
C340        C344   1.534       .  S
C340        C342   1.544       .  S
C340        H346   1.104       .  S
C341        H347   1.082       .  S
C341        C342   1.371       .  D
C342       C1433   1.492       .  S
C343        H348   1.087       .  S
C343        C344   1.362       .  D
C344       C1217   1.484       .  S
C349        C350   1.544       .  S
C349        C355   1.529       .  S
C349        C353   1.545   1_545  S
C349       C2089   1.540       .  S
C350        H357   1.075       .  S
C350        C351   1.371       .  D
C351        C352   1.552       .  S
C351       C1417   1.511       .  S
C352        C356   1.543       .  S
C352        C354   1.541   1_545  S
C352        H358   1.107   1_545  S
C353        H359   1.086       .  S
C353        C354   1.372       .  D
C354       C1593   1.490       .  S
C355        H360   1.086       .  S
C355        C356   1.362       .  D
C356       C1201   1.486   1_545  S
C361        C362   1.534       .  S
C361        C367   1.531       .  S
C361        C365   1.548       .  S
C361       C1169   1.530       .  S
C362        H369   1.086       .  S
C362        C363   1.368       .  D
C363        C364   1.544       .  S
C363       C1545   1.485       .  S
C364        C368   1.537       .  S
C364        C366   1.545       .  S
C364        H370   1.110       .  S
C365        H371   1.082       .  S
C365        C366   1.369       .  D
C366       C1337   1.493       .  S
C367        H372   1.087       .  S
C367        C368   1.361       .  D
C368       C1185   1.472       .  S
C373        C374   1.532       .  S
C373        C379   1.526       .  S
C373        C377   1.533       .  S
C373       C1137   1.518       .  S
C374        H381   1.078       .  S
C374        C375   1.369       .  D
C375        C376   1.553       .  S
C375       C1385   1.501       .  S
C376        C380   1.547       .  S
C376        C378   1.554       .  S
C376        H382   1.106       .  S
C377        H383   1.085       .  S
C377        C378   1.370       .  D
C378       C1497   1.496       .  S
C379        H384   1.087       .  S
C379        C380   1.357       .  D
C380       C1153   1.487       .  S
C385        C386   1.546       .  S
C385        C391   1.529       .  S
C385        C389   1.537   1_545  S
C385       C1849   1.533       .  S
C386        H393   1.084       .  S
C386        C387   1.375       .  D
C387        C388   1.540       .  S
C387       C1441   1.501       .  S
C388        C392   1.542       .  S
C388        C390   1.542   1_545  S
C388        H394   1.106       .  S
C389        H395   1.085       .  S
C389        C390   1.363       .  D
C390       C1561   1.476       .  S
C391        H396   1.085       .  S
C391        C392   1.368       .  D
C392       C1129   1.490       .  S
C397        C398   1.533   1_545  S
C397        C403   1.533       .  S
C397        C401   1.546       .  S
C397       C2065   1.532       .  S
C398        H405   1.086       .  S
C398        C399   1.371       .  D
C399        C400   1.548   1_565  S
C399       C1609   1.490       .  S
C400        C404   1.541       .  S
C400        C402   1.540       .  S
C400        H406   1.110       .  S
C401        H407   1.082       .  S
C401        C402   1.369       .  D
C402       C1393   1.488       .  S
C403        H408   1.087       .  S
C403        C404   1.361       .  D
C404       C1113   1.479       .  S
O409        C420   1.293       .  A
O409       Eu445   2.466       .  S
O410        C421   1.288       .  A
O410       Eu444   2.433       .  S
O411        C422   1.289       .  A
O411       Eu417   2.440       .  S
O412        C423   1.292       .  A
O412       Eu417   2.460       .  S
O413        C423   1.288       .  A
O413       Eu447   2.436   1_554  S
O414        C422   1.295       .  A
O414       Eu446   2.477   1_554  S
O415        C421   1.295       .  A
O415       Eu417   2.485       .  S
O416        C420   1.288   1_554  A
O416       Eu417   2.436       .  S
Eu417       O427   2.356   1_554  S
Eu417       O419   2.355   1_554  S
Eu417       O418   2.341       .  S
Eu417       O425   2.349       .  S
O418       Eu447   2.361   1_554  S
O418       Eu444   2.360       .  S
O419       Eu445   2.348       .  S
O419       Eu446   2.344       .  S
C420       C1777   1.476       .  S
C421       C1177   1.486       .  S
C422        C993   1.484       .  S
C423       C1089   1.474       .  S
H424        O425   0.960       .  S
O425       Eu446   2.386   1_554  S
O425       Eu444   2.365       .  S
H426        O427   0.966       .  S
O427       Eu445   2.343       .  S
O427       Eu447   2.345       .  S
O428        C451   1.290   1_554  A
O428       Eu444   2.449       .  S
O429        C452   1.293       .  A
O429       Eu445   2.472       .  S
O430        C453   1.292       .  A
O430       Eu446   2.453   1_554  S
O431        C454   1.286       .  A
O431       Eu447   2.414   1_554  S
O432        C455   1.292       .  A
O432       Eu447   2.462       .  S
O433        C456   1.297       .  A
O433       Eu446   2.485       .  S
O434        C457   1.288       .  A
O434       Eu448   2.432       .  S
O435        C458   1.290       .  A
O435       Eu448   2.455       .  S
O436        C457   1.298       .  A
O436       Eu446   2.509       .  S
O437        C458   1.291       .  A
O437       Eu447   2.457       .  S
O438        C453   1.301       .  A
O438       Eu444   2.510       .  S
O439        C456   1.288       .  A
O439       Eu445   2.431       .  S
O440        C455   1.292       .  A
O440       Eu445   2.465       .  S
O441        C454   1.301       .  A
O441       Eu444   2.518       .  S
O442        C451   1.288       .  A
O442       Eu448   2.439       .  S
O443        C452   1.284       .  A
O443       Eu448   2.410       .  S
Eu444       O462   2.358   1_554  S
Eu444       O450   2.359   1_554  S
Eu445       O449   2.343       .  S
Eu445       O460   2.364       .  S
Eu446       O460   2.351       .  S
Eu446       O450   2.361       .  S
Eu447       O449   2.326       .  S
Eu447       O462   2.357       .  S
Eu448       O449   2.344       .  S
Eu448       O460   2.349       .  S
Eu448       O462   2.326       .  S
Eu448       O450   2.341       .  S
C451       C1689   1.471       .  S
C452       C1273   1.475       .  S
C453        C985   1.498       .  S
C454       C1049   1.488       .  S
C455       C1081   1.483       .  S
C456       C1009   1.485       .  S
C457       C1033   1.493       .  S
C458       C1065   1.482       .  S
H459        O460   0.967       .  S
H461        O462   0.968       .  S
O463        C474   1.291       .  A
O463       Eu499   2.462       .  S
O464        C475   1.289       .  A
O464       Eu498   2.436       .  S
O465        C476   1.289       .  A
O465       Eu471   2.444       .  S
O466        C477   1.287       .  A
O466       Eu471   2.437       .  S
O467        C477   1.293       .  A
O467       Eu501   2.476   1_554  S
O468        C476   1.296       .  A
O468       Eu500   2.492       .  S
O469        C475   1.291       .  A
O469       Eu471   2.451       .  S
O470        C474   1.289   1_554  A
O470       Eu471   2.435       .  S
Eu471       O481   2.352   1_554  S
Eu471       O473   2.345   1_554  S
Eu471       O472   2.351       .  S
Eu471       O479   2.345       .  S
O472       Eu501   2.345   1_554  S
O472       Eu498   2.343       .  S
O473       Eu499   2.355       .  S
O473       Eu500   2.343   1_556  S
C474       C1817   1.469       .  S
C475       C1145   1.467       .  S
C476        C889   1.484       .  S
C477        C945   1.469       .  S
H478        O479   0.964       .  S
O479       Eu500   2.333       .  S
O479       Eu498   2.361       .  S
H480        O481   0.965       .  S
O481       Eu499   2.358       .  S
O481       Eu501   2.336       .  S
O482        C505   1.289       .  A
O482       Eu498   2.440       .  S
O483        C506   1.293       .  A
O483       Eu499   2.468       .  S
O484        C507   1.290       .  A
O484       Eu500   2.443       .  S
O485        C508   1.289       .  A
O485       Eu501   2.447   1_554  S
O486        C509   1.288       .  A
O486       Eu501   2.436       .  S
O487        C510   1.290       .  A
O487       Eu500   2.449   1_556  S
O488        C511   1.292       .  A
O488       Eu502   2.461       .  S
O489        C512   1.292       .  A
O489       Eu502   2.461       .  S
O490        C511   1.289       .  A
O490       Eu500   2.435   1_556  S
O491        C512   1.291       .  A
O491       Eu501   2.448       .  S
O492        C507   1.291       .  A
O492       Eu498   2.451       .  S
O493        C510   1.291       .  A
O493       Eu499   2.453       .  S
O494        C509   1.292       .  A
O494       Eu499   2.459       .  S
O495        C508   1.294       .  A
O495       Eu498   2.475       .  S
O496        C505   1.294   1_556  A
O496       Eu502   2.480       .  S
O497        C506   1.294       .  A
O497       Eu502   2.471       .  S
Eu498       O516   2.342       .  S
Eu498       O504   2.342       .  S
Eu499       O503   2.347       .  S
Eu499       O514   2.356       .  S
Eu500       O514   2.357   1_554  S
Eu500       O504   2.360       .  S
Eu501       O503   2.358       .  S
Eu501       O516   2.342   1_556  S
Eu502       O503   2.351       .  S
Eu502       O514   2.371       .  S
Eu502       O516   2.359   1_556  S
Eu502       O504   2.343   1_556  S
C505       C1713   1.483       .  S
C506       C1241   1.483       .  S
C507        C865   1.478       .  S
C508        C969   1.482       .  S
C509        C929   1.472       .  S
C510        C905   1.481       .  S
C511        C857   1.476       .  S
C512        C913   1.480       .  S
H513        O514   0.960       .  S
H515        O516   0.963       .  S
C517        C518   1.537   1_655  S
C517        C523   1.536       .  S
C517        C521   1.542       .  S
C517       C1481   1.523       .  S
C518        H525   1.086       .  S
C518        C519   1.366       .  D
C519        C520   1.537   1_455  S
C519        C897   1.473       .  S
C520        C524   1.543   1_655  S
C520        C522   1.535       .  S
C520        H526   1.110   1_655  S
C521        H527   1.080       .  S
C521        C522   1.358       .  D
C522       C1073   1.476       .  S
C523        H528   1.086       .  S
C523        C524   1.365   1_655  D
C524        C833   1.482       .  S
C529        C530   1.538       .  S
C529        C535   1.532       .  S
C529        C533   1.544   1_655  S
C529       C1321   1.532       .  S
C530        H537   1.085       .  S
C530        C531   1.374       .  D
C531        C532   1.550       .  S
C531       C1057   1.499       .  S
C532        C536   1.534       .  S
C532        C534   1.541   1_655  S
C532        H538   1.108       .  S
C533        H539   1.081       .  S
C533        C534   1.366       .  D
C534        C849   1.488       .  S
C535        H540   1.086       .  S
C535        C536   1.360       .  D
C536        C825   1.476       .  S
C541        C542   1.539       .  S
C541        C547   1.525       .  S
C541        C545   1.540       .  S
C541       C2185   1.526       .  S
C542        H549   1.079       .  S
C542        C543   1.370       .  D
C543        C544   1.542       .  S
C543        C937   1.498       .  S
C544        C548   1.543       .  S
C544        C546   1.542       .  S
C544        H550   1.108       .  S
C545        H551   1.086       .  S
C545        C546   1.368       .  D
C546       C1017   1.476       .  S
C547        H552   1.087       .  S
C547        C548   1.360       .  D
C548        C809   1.481       .  S
C553        C554   1.544       .  S
C553        C559   1.540       .  S
C553        C557   1.550       .  S
C553       C1937   1.543       .  S
C554        H561   1.086       .  S
C554        C555   1.371       .  D
C555        C556   1.538       .  S
C555       C1001   1.490       .  S
C556        C560   1.538       .  S
C556        C558   1.540       .  S
C556        H562   1.107       .  S
C557        H563   1.081       .  S
C557        C558   1.368       .  D
C558        C953   1.500       .  S
C559        H564   1.086       .  S
C559        C560   1.367       .  D
C560        C793   1.487       .  S
C565        C566   1.532   1_655  S
C565        C571   1.531       .  S
C565        C569   1.540       .  S
C565       C1305   1.520   1_655  S
C566        H573   1.081       .  S
C566        C567   1.362       .  D
C567        C568   1.545   1_455  S
C567        C873   1.485       .  S
C568        C572   1.539       .  S
C568        C570   1.548       .  S
C568        H574   1.109       .  S
C569        H575   1.085       .  S
C569        C570   1.370       .  D
C570       C1041   1.493       .  S
C571        H576   1.087       .  S
C571        C572   1.362       .  D
C572        C777   1.479       .  S
C577        C578   1.537       .  S
C577        C583   1.534       .  S
C577        C581   1.551   1_655  S
C577       C1465   1.531       .  S
C578        H585   1.083       .  S
C578        C579   1.355       .  D
C579        C580   1.528       .  S
C579       C1097   1.461       .  S
C580        C584   1.533       .  S
C580        C582   1.546   1_655  S
C580        H586   1.107       .  S
C581        H587   1.085       .  S
C581        C582   1.380       .  D
C582        C881   1.504       .  S
C583        H588   1.087       .  S
C583        C584   1.364       .  D
C584        C753   1.480       .  S
C589        C590   1.533       .  S
C589        C595   1.529       .  S
C589        C593   1.537       .  S
C589       C2169   1.530       .  S
C590        H597   1.078       .  S
C590        C591   1.370       .  D
C591        C592   1.554       .  S
C591       C1025   1.504       .  S
C592        C596   1.546       .  S
C592        C594   1.554       .  S
C592        H598   1.108       .  S
C593        H599   1.085       .  S
C593        C594   1.371       .  D
C594        C921   1.497       .  S
C595        H600   1.087       .  S
C595        C596   1.362       .  D
C596        C745   1.487       .  S
C601        C602   1.536       .  S
C601        C607   1.535       .  S
C601        C605   1.540       .  S
C601       C1929   1.535       .  S
C602        H609   1.085       .  S
C602        C603   1.374       .  D
C603        C604   1.550       .  S
C603        C961   1.497       .  S
C604        C608   1.548       .  S
C604        C606   1.544       .  S
C604        H610   1.109       .  S
C605        H611   1.079       .  S
C605        C606   1.364       .  D
C606        C977   1.494       .  S
C607        H612   1.087       .  S
C607        C608   1.364       .  D
C608        C721   1.486       .  S
O613        C624   1.296       .  A
O613       Eu649   2.490       .  S
O614        C625   1.297       .  A
O614       Eu648   2.502       .  S
O615        C626   1.296       .  A
O615       Eu621   2.495       .  S
O616        C627   1.292       .  A
O616       Eu621   2.465       .  S
O617        C627   1.292       .  A
O617       Eu651   2.456       .  S
O618        C626   1.285       .  A
O618       Eu650   2.415       .  S
O619        C625   1.287       .  A
O619       Eu621   2.442       .  S
O620        C624   1.285       .  A
O620       Eu621   2.419       .  S
Eu621       O631   2.356       .  S
Eu621       O623   2.349       .  S
Eu621       O622   2.361       .  S
Eu621       O629   2.341       .  S
O622       Eu651   2.358       .  S
O622       Eu648   2.359       .  S
O623       Eu649   2.344       .  S
O623       Eu650   2.350       .  S
C624       C2057   1.472       .  S
C625        C737   1.476       .  S
C626       C1281   1.473       .  S
C627       C1673   1.486       .  S
H628        O629   0.962       .  S
O629       Eu650   2.351       .  S
O629       Eu648   2.355       .  S
H630        O631   0.964       .  S
O631       Eu649   2.350       .  S
O631       Eu651   2.338       .  S
O632        C655   1.300       .  A
O632       Eu648   2.511       .  S
O633        C656   1.294       .  A
O633       Eu649   2.481       .  S
O634        C657   1.297       .  A
O634       Eu650   2.500       .  S
O635        C658   1.292       .  A
O635       Eu651   2.470       .  S
O636        C659   1.294       .  A
O636       Eu651   2.478       .  S
O637        C660   1.292       .  A
O637       Eu650   2.469       .  S
O638        C661   1.294       .  A
O638       Eu652   2.481       .  S
O639        C662   1.299       .  A
O639       Eu652   2.512       .  S
O640        C661   1.290       .  A
O640       Eu650   2.441       .  S
O641        C662   1.283       .  A
O641       Eu651   2.407       .  S
O642        C657   1.285       .  A
O642       Eu648   2.412       .  S
O643        C660   1.289       .  A
O643       Eu649   2.444       .  S
O644        C659   1.287       .  A
O644       Eu649   2.430       .  S
O645        C658   1.290       .  A
O645       Eu648   2.444       .  S
O646        C655   1.285       .  A
O646       Eu652   2.415       .  S
O647        C656   1.287       .  A
O647       Eu652   2.439       .  S
Eu648       O666   2.357       .  S
Eu648       O654   2.342       .  S
Eu649       O653   2.349       .  S
Eu649       O664   2.362       .  S
Eu650       O664   2.363       .  S
Eu650       O654   2.329       .  S
Eu651       O653   2.352       .  S
Eu651       O666   2.361       .  S
Eu652       O653   2.338       .  S
Eu652       O664   2.366       .  S
Eu652       O666   2.362       .  S
Eu652       O654   2.350       .  S
C655       C1633   1.478       .  S
C656        C785   1.467       .  S
C657        C801   1.475       .  S
C658       C1257   1.468       .  S
C659        C729   1.477       .  S
C660       C1193   1.468       .  S
C661       C1769   1.483       .  S
C662       C1161   1.480       .  S
H663        O664   0.966       .  S
H665        O666   0.963       .  S
O667        C678   1.300       .  A
O667       Eu703   2.522       .  S
O668        C679   1.297       .  A
O668       Eu702   2.496   1_455  S
O669        C680   1.294       .  A
O669       Eu675   2.478       .  S
O670        C681   1.290       .  A
O670       Eu675   2.462   1_545  S
O671        C681   1.289       .  A
O671       Eu705   2.436   1_556  S
O672        C680   1.289   1_655  A
O672       Eu704   2.435       .  S
O673        C679   1.288       .  A
O673       Eu675   2.431   1_545  S
O674        C678   1.284   1_556  A
O674       Eu675   2.406       .  S
Eu675       O685   2.350   1_566  S
Eu675       O677   2.347       .  S
Eu675       O676   2.358   1_565  S
Eu675       O683   2.334   1_455  S
O676       Eu705   2.359   1_556  S
O676       Eu702   2.359   1_455  S
O677       Eu703   2.337   1_556  S
O677       Eu704   2.353   1_455  S
C678       C1833   1.479       .  S
C679       C1105   1.488       .  S
C680        C841   1.476       .  S
C681       C1729   1.471       .  S
H682        O683   0.965       .  S
O683       Eu704   2.358       .  S
O683       Eu702   2.361   1_565  S
H684        O685   0.963       .  S
O685       Eu703   2.341   1_545  S
O685       Eu705   2.337       .  S
O686        C709   1.299       .  A
O686       Eu702   2.505       .  S
O687        C710   1.295       .  A
O687       Eu703   2.485   1_655  S
O688        C711   1.298       .  A
O688       Eu704   2.499       .  S
O689        C712   1.292       .  A
O689       Eu705   2.464   1_556  S
O690        C713   1.295       .  A
O690       Eu705   2.487       .  S
O691        C714   1.295       .  A
O691       Eu704   2.481   1_554  S
O692        C715   1.290       .  A
O692       Eu706   2.453   1_565  S
O693        C716   1.297       .  A
O693       Eu706   2.500       .  S
O694        C715   1.294   1_556  A
O694       Eu704   2.463       .  S
O695        C716   1.284       .  A
O695       Eu705   2.411   1_655  S
O696        C711   1.286   1_545  A
O696       Eu702   2.417       .  S
O697        C714   1.289   1_455  A
O697       Eu703   2.439       .  S
O698        C713   1.284       .  A
O698       Eu703   2.405   1_545  S
O699        C712   1.292   1_655  A
O699       Eu702   2.453       .  S
O700        C709   1.287   1_554  A
O700       Eu706   2.433       .  S
O701        C710   1.289   1_545  A
O701       Eu706   2.438       .  S
Eu702       O720   2.347       .  S
Eu702       O708   2.353       .  S
Eu703       O707   2.356   1_465  S
Eu703       O718   2.369   1_455  S
Eu704       O718   2.360   1_556  S
Eu704       O708   2.342   1_565  S
Eu705       O707   2.342   1_455  S
Eu705       O720   2.356   1_454  S
Eu706       O707   2.333       .  S
Eu706       O718   2.369   1_545  S
Eu706       O720   2.350   1_554  S
Eu706       O708   2.347   1_554  S
C709       C1697   1.484       .  S
C710       C1225   1.490       .  S
C711       C1209   1.471       .  S
C712        C817   1.485       .  S
C713       C1121   1.467       .  S
C714        C761   1.488       .  S
C715       C1801   1.482       .  S
C716        C769   1.477       .  S
H717        O718   0.962       .  S
H719        O720   0.961       .  S
C721        C722   1.401       .  A
C721        C726   1.412       .  A
C722        C723   1.396       .  A
C722        H731   1.083       .  S
C723        C724   1.403       .  A
C723        H732   1.084       .  S
C724        C730   1.398       .  A
C724        C725   1.411       .  A
C725        C727   1.409       .  A
C725        C726   1.407       .  A
C726        H733   1.084       .  S
C727        C728   1.404       .  A
C727        H734   1.083       .  S
C728        C729   1.403       .  A
C728        H735   1.083       .  S
C729        C730   1.407       .  A
C730        H736   1.085       .  S
C737        C738   1.403       .  A
C737        C742   1.405       .  A
C738        C739   1.399       .  A
C738        H747   1.082       .  S
C739        C740   1.402       .  A
C739        H748   1.083       .  S
C740        C746   1.410       .  A
C740        C741   1.417       .  A
C741        C743   1.401       .  A
C741        C742   1.410       .  A
C742        H749   1.085       .  S
C743        C744   1.397       .  A
C743        H750   1.084       .  S
C744        C745   1.407       .  A
C744        H751   1.083       .  S
C745        C746   1.403       .  A
C746        H752   1.084       .  S
C753        C754   1.402   1_655  A
C753        C758   1.407       .  A
C754        C755   1.394       .  A
C754        H763   1.083       .  S
C755        C756   1.401       .  A
C755        H764   1.084       .  S
C756        C762   1.400       .  A
C756        C757   1.413   1_455  A
C757        C759   1.405       .  A
C757        C758   1.408       .  A
C758        H765   1.084       .  S
C759        C760   1.402       .  A
C759        H766   1.083       .  S
C760        C761   1.407       .  A
C760        H767   1.083       .  S
C761        C762   1.409   1_655  A
C762        H768   1.084       .  S
C769        C770   1.402       .  A
C769        C774   1.410       .  A
C770        C771   1.402       .  A
C770        H779   1.083       .  S
C771        C772   1.407       .  A
C771        H780   1.083       .  S
C772        C778   1.403       .  A
C772        C773   1.411       .  A
C773        C775   1.404       .  A
C773        C774   1.398       .  A
C774        H781   1.085       .  S
C775        C776   1.396       .  A
C775        H782   1.084   1_655  S
C776        C777   1.401       .  A
C776        H783   1.083   1_655  S
C777        C778   1.408       .  A
C778        H784   1.084       .  S
C785        C786   1.402       .  A
C785        C790   1.405       .  A
C786        C787   1.396       .  A
C786        H795   1.084       .  S
C787        C788   1.401       .  A
C787        H796   1.084       .  S
C788        C794   1.404       .  A
C788        C789   1.415       .  A
C789        C791   1.403       .  A
C789        C790   1.409       .  A
C790        H797   1.085       .  S
C791        C792   1.400       .  A
C791        H798   1.084       .  S
C792        C793   1.405       .  A
C792        H799   1.080       .  S
C793        C794   1.405       .  A
C794        H800   1.084       .  S
C801        C802   1.401       .  A
C801        C806   1.409       .  A
C802        C803   1.403       .  A
C802        H811   1.083       .  S
C803        C804   1.408       .  A
C803        H812   1.083       .  S
C804        C810   1.403       .  A
C804        C805   1.410       .  A
C805        C807   1.404       .  A
C805        C806   1.396       .  A
C806        H813   1.084       .  S
C807        C808   1.397       .  A
C807        H814   1.084       .  S
C808        C809   1.401       .  A
C808        H815   1.083       .  S
C809        C810   1.411       .  A
C810        H816   1.084       .  S
C817        C818   1.408       .  A
C817        C822   1.405   1_455  A
C818        C819   1.404       .  A
C818        H827   1.083       .  S
C819        C820   1.405       .  A
C819        H828   1.084       .  S
C820        C826   1.409       .  A
C820        C821   1.414   1_455  A
C821        C823   1.398       .  A
C821        C822   1.396       .  A
C822        H829   1.084       .  S
C823        C824   1.389       .  A
C823        H830   1.084       .  S
C824        C825   1.403       .  A
C824        H831   1.083       .  S
C825        C826   1.407   1_655  A
C826        H832   1.084       .  S
C833        C834   1.401   1_455  A
C833        C838   1.411       .  A
C834        C835   1.395       .  A
C834        H843   1.083       .  S
C835        C836   1.402   1_655  A
C835        H844   1.084       .  S
C836        C842   1.399       .  A
C836        C837   1.413       .  A
C837        C839   1.407       .  A
C837        C838   1.406       .  A
C838        H845   1.084       .  S
C839        C840   1.402       .  A
C839        H846   1.083       .  S
C840        C841   1.403       .  A
C840        H847   1.083       .  S
C841        C842   1.406       .  A
C842        H848   1.085       .  S
C849        C850   1.408       .  A
C849        C854   1.399       .  A
C850        C851   1.400       .  A
C850        H859   1.082       .  S
C851        C852   1.402       .  A
C851        H860   1.084       .  S
C852        C858   1.403       .  A
C852        C853   1.411       .  A
C853        C855   1.399       .  A
C853        C854   1.395       .  A
C854        H861   1.070       .  S
C855        C856   1.391       .  A
C855        H862   1.084       .  S
C856        C857   1.407       .  A
C856        H863   1.083       .  S
C857        C858   1.407       .  A
C858        H864   1.084       .  S
C865        C866   1.406       .  A
C865        C870   1.407       .  A
C866        C867   1.395       .  A
C866        H875   1.083       .  S
C867        C868   1.401       .  A
C867        H876   1.084       .  S
C868        C874   1.400       .  A
C868        C869   1.412       .  A
C869        C871   1.400       .  A
C869        C870   1.399       .  A
C870        H877   1.084       .  S
C871        C872   1.395       .  A
C871        H878   1.084       .  S
C872        C873   1.402       .  A
C872        H879   1.073       .  S
C873        C874   1.408       .  A
C874        H880   1.084       .  S
C881        C882   1.411       .  A
C881        C886   1.411       .  A
C882        C883   1.397       .  A
C882        H891   1.079       .  S
C883        C884   1.398       .  A
C883        H892   1.084       .  S
C884        C890   1.410       .  A
C884        C885   1.415       .  A
C885        C887   1.402       .  A
C885        C886   1.412       .  A
C886        H893   1.083       .  S
C887        C888   1.399       .  A
C887        H894   1.083       .  S
C888        C889   1.407       .  A
C888        H895   1.084       .  S
C889        C890   1.405       .  A
C890        H896   1.084       .  S
C897        C898   1.403       .  A
C897        C902   1.401       .  A
C898        C899   1.396       .  A
C898        H907   1.083       .  S
C899        C900   1.402       .  A
C899        H908   1.084       .  S
C900        C906   1.400       .  A
C900        C901   1.413       .  A
C901        C903   1.400       .  A
C901        C902   1.399       .  A
C902        H909   1.083       .  S
C903        C904   1.396       .  A
C903        H910   1.084       .  S
C904        C905   1.408       .  A
C904        H911   1.083       .  S
C905        C906   1.407       .  A
C906        H912   1.084       .  S
C913        C914   1.407       .  A
C913        C918   1.408       .  A
C914        C915   1.392       .  A
C914        H923   1.083       .  S
C915        C916   1.399       .  A
C915        H924   1.084       .  S
C916        C922   1.403       .  A
C916        C917   1.414       .  A
C917        C919   1.402       .  A
C917        C918   1.409       .  A
C918        H925   1.084       .  S
C919        C920   1.401       .  A
C919        H926   1.084       .  S
C920        C921   1.411       .  A
C920        H927   1.082       .  S
C921        C922   1.404       .  A
C922        H928   1.078       .  S
C929        C930   1.402       .  A
C929        C934   1.409       .  A
C930        C931   1.391       .  A
C930        H939   1.083       .  S
C931        C932   1.400       .  A
C931        H940   1.084       .  S
C932        C938   1.396       .  A
C932        C933   1.411       .  A
C933        C935   1.403       .  A
C933        C934   1.405       .  A
C934        H941   1.084       .  S
C935        C936   1.402       .  A
C935        H942   1.084       .  S
C936        C937   1.410       .  A
C936        H943   1.079       .  S
C937        C938   1.408       .  A
C938        H944   1.082       .  S
C945        C946   1.403       .  A
C945        C950   1.401       .  A
C946        C947   1.400       .  A
C946        H955   1.082       .  S
C947        C948   1.405       .  A
C947        H956   1.084       .  S
C948        C954   1.406       .  A
C948        C949   1.413       .  A
C949        C951   1.398       .  A
C949        C950   1.402       .  A
C950        H957   1.085       .  S
C951        C952   1.396       .  A
C951        H958   1.084       .  S
C952        C953   1.408       .  A
C952        H959   1.078       .  S
C953        C954   1.414       .  A
C954        H960   1.082       .  S
C961        C962   1.410       .  A
C961        C966   1.409       .  A
C962        C963   1.397       .  A
C962        H971   1.082       .  S
C963        C964   1.400       .  A
C963        H972   1.084       .  S
C964        C970   1.404       .  A
C964        C965   1.413       .  A
C965        C967   1.404       .  A
C965        C966   1.408       .  A
C966        H973   1.080       .  S
C967        C968   1.401       .  A
C967        H974   1.084       .  S
C968        C969   1.407       .  A
C968        H975   1.083       .  S
C969        C970   1.405       .  A
C970        H976   1.084       .  S
C977        C978   1.408       .  A
C977        C982   1.407       .  A
C978        C979   1.396       .  A
C978        H987   1.083       .  S
C979        C980   1.400       .  A
C979        H988   1.084       .  S
C980        C986   1.410       .  A
C980        C981   1.415       .  A
C981        C983   1.402       .  A
C981        C982   1.414       .  A
C982        H989   1.082       .  S
C983        C984   1.402       .  A
C983        H990   1.084       .  S
C984        C985   1.412       .  A
C984        H991   1.083       .  S
C985        C986   1.407       .  A
C986        H992   1.084       .  S
C993        C994   1.410       .  A
C993        C998   1.404       .  A
C994        C995   1.398       .  A
C994       H1003   1.083       .  S
C995        C996   1.401       .  A
C995       H1004   1.084       .  S
C996       C1002   1.410       .  A
C996        C997   1.416       .  A
C997        C999   1.399       .  A
C997        C998   1.405       .  A
C998       H1005   1.084       .  S
C999       C1000   1.395       .  A
C999       H1006   1.084       .  S
C1000      C1001   1.407       .  A
C1000      H1007   1.082       .  S
C1001      C1002   1.407       .  A
C1002      H1008   1.084       .  S
C1009      C1010   1.410       .  A
C1009      C1014   1.405       .  A
C1010      C1011   1.398       .  A
C1010      H1019   1.083       .  S
C1011      C1012   1.401       .  A
C1011      H1020   1.084       .  S
C1012      C1018   1.406       .  A
C1012      C1013   1.415       .  A
C1013      C1015   1.400       .  A
C1013      C1014   1.402       .  A
C1014      H1021   1.084       .  S
C1015      C1016   1.395       .  A
C1015      H1022   1.084       .  S
C1016      C1017   1.402       .  A
C1016      H1023   1.080       .  S
C1017      C1018   1.402       .  A
C1018      H1024   1.084       .  S
C1025      C1026   1.407       .  A
C1025      C1030   1.410       .  A
C1026      C1027   1.407       .  A
C1026      H1035   1.077       .  S
C1027      C1028   1.406       .  A
C1027      H1036   1.083       .  S
C1028      C1034   1.416       .  A
C1028      C1029   1.412       .  A
C1029      C1031   1.398       .  A
C1029      C1030   1.401       .  A
C1030      H1037   1.083       .  S
C1031      C1032   1.392       .  A
C1031      H1038   1.084       .  S
C1032      C1033   1.410       .  A
C1032      H1039   1.083       .  S
C1033      C1034   1.412       .  A
C1034      H1040   1.083       .  S
C1041      C1042   1.409       .  A
C1041      C1046   1.401       .  A
C1042      C1043   1.403       .  A
C1042      H1051   1.082       .  S
C1043      C1044   1.403       .  A
C1043      H1052   1.083       .  S
C1044      C1050   1.414       .  A
C1044      C1045   1.414       .  A
C1045      C1047   1.395       .  A
C1045      C1046   1.399       .  A
C1046      H1053   1.075       .  S
C1047      C1048   1.388       .  A
C1047      H1054   1.084       .  S
C1048      C1049   1.412       .  A
C1048      H1055   1.083       .  S
C1049      C1050   1.408       .  A
C1050      H1056   1.084       .  S
C1057      C1058   1.406       .  A
C1057      C1062   1.410       .  A
C1058      C1059   1.393       .  A
C1058      H1067   1.068       .  S
C1059      C1060   1.396       .  A
C1059      H1068   1.084       .  S
C1060      C1066   1.404       .  A
C1060      C1061   1.414       .  A
C1061      C1063   1.401       .  A
C1061      C1062   1.409       .  A
C1062      H1069   1.083       .  S
C1063      C1064   1.398       .  A
C1063      H1070   1.083       .  S
C1064      C1065   1.407       .  A
C1064      H1071   1.083       .  S
C1065      C1066   1.405       .  A
C1066      H1072   1.085       .  S
C1073      C1074   1.403       .  A
C1073      C1078   1.402       .  A
C1074      C1075   1.400       .  A
C1074      H1083   1.083       .  S
C1075      C1076   1.404       .  A
C1075      H1084   1.083       .  S
C1076      C1082   1.408       .  A
C1076      C1077   1.415       .  A
C1077      C1079   1.401       .  A
C1077      C1078   1.405       .  A
C1078      H1085   1.083       .  S
C1079      C1080   1.398       .  A
C1079      H1086   1.084       .  S
C1080      C1081   1.406       .  A
C1080      H1087   1.083       .  S
C1081      C1082   1.408       .  A
C1082      H1088   1.084       .  S
C1089      C1090   1.406       .  A
C1089      C1094   1.405       .  A
C1090      C1091   1.394       .  A
C1090      H1099   1.083       .  S
C1091      C1092   1.400       .  A
C1091      H1100   1.084       .  S
C1092      C1098   1.397       .  A
C1092      C1093   1.414       .  A
C1093      C1095   1.402       .  A
C1093      C1094   1.398       .  A
C1094      H1101   1.084       .  S
C1095      C1096   1.395       .  A
C1095      H1102   1.084       .  S
C1096      C1097   1.400       .  A
C1096      H1103   1.083       .  S
C1097      C1098   1.398       .  A
C1098      H1104   1.083       .  S
C1105      C1106   1.406       .  A
C1105      C1110   1.409   1_545  A
C1106      C1107   1.407       .  A
C1106      H1115   1.083       .  S
C1107      C1108   1.408       .  A
C1107      H1116   1.083       .  S
C1108      C1114   1.411       .  A
C1108      C1109   1.413   1_545  A
C1109      C1111   1.401       .  A
C1109      C1110   1.399       .  A
C1110      H1117   1.085       .  S
C1111      C1112   1.393       .  A
C1111      H1118   1.084       .  S
C1112      C1113   1.403   1_565  A
C1112      H1119   1.084       .  S
C1113      C1114   1.407       .  A
C1114      H1120   1.084       .  S
C1121      C1122   1.400       .  A
C1121      C1126   1.407       .  A
C1122      C1123   1.400       .  A
C1122      H1131   1.083       .  S
C1123      C1124   1.407       .  A
C1123      H1132   1.083       .  S
C1124      C1130   1.401       .  A
C1124      C1125   1.410       .  A
C1125      C1127   1.402       .  A
C1125      C1126   1.396       .  A
C1126      H1133   1.086       .  S
C1127      C1128   1.396       .  A
C1127      H1134   1.084   1_545  S
C1128      C1129   1.406       .  A
C1128      H1135   1.081   1_545  S
C1129      C1130   1.411       .  A
C1130      H1136   1.083       .  S
C1137      C1138   1.412       .  A
C1137      C1142   1.406       .  A
C1138      C1139   1.396       .  A
C1138      H1147   1.077       .  S
C1139      C1140   1.400       .  A
C1139      H1148   1.084       .  S
C1140      C1146   1.397       .  A
C1140      C1141   1.411       .  A
C1141      C1143   1.400       .  A
C1141      C1142   1.393       .  A
C1142      H1149   1.085       .  S
C1143      C1144   1.393       .  A
C1143      H1150   1.084       .  S
C1144      C1145   1.403       .  A
C1144      H1151   1.083       .  S
C1145      C1146   1.406       .  A
C1146      H1152   1.085       .  S
C1153      C1154   1.401       .  A
C1153      C1158   1.415       .  A
C1154      C1155   1.397       .  A
C1154      H1163   1.083       .  S
C1155      C1156   1.404       .  A
C1155      H1164   1.084       .  S
C1156      C1162   1.397       .  A
C1156      C1157   1.409       .  A
C1157      C1159   1.410       .  A
C1157      C1158   1.406       .  A
C1158      H1165   1.084       .  S
C1159      C1160   1.406       .  A
C1159      H1166   1.083       .  S
C1160      C1161   1.402       .  A
C1160      H1167   1.083       .  S
C1161      C1162   1.409       .  A
C1162      H1168   1.083       .  S
C1169      C1170   1.413       .  A
C1169      C1174   1.407       .  A
C1170      C1171   1.400       .  A
C1170      H1179   1.083       .  S
C1171      C1172   1.401       .  A
C1171      H1180   1.084       .  S
C1172      C1178   1.410       .  A
C1172      C1173   1.413       .  A
C1173      C1175   1.397       .  A
C1173      C1174   1.402       .  A
C1174      H1181   1.078       .  S
C1175      C1176   1.392       .  A
C1175      H1182   1.084       .  S
C1176      C1177   1.409       .  A
C1176      H1183   1.083       .  S
C1177      C1178   1.409       .  A
C1178      H1184   1.084       .  S
C1185      C1186   1.402       .  A
C1185      C1190   1.400       .  A
C1186      C1187   1.397       .  A
C1186      H1195   1.083       .  S
C1187      C1188   1.402       .  A
C1187      H1196   1.084       .  S
C1188      C1194   1.406       .  A
C1188      C1189   1.418       .  A
C1189      C1191   1.401       .  A
C1189      C1190   1.404       .  A
C1190      H1197   1.085       .  S
C1191      C1192   1.395       .  A
C1191      H1198   1.084       .  S
C1192      C1193   1.404       .  A
C1192      H1199   1.084       .  S
C1193      C1194   1.401       .  A
C1194      H1200   1.084       .  S
C1201      C1202   1.402   1_565  A
C1201      C1206   1.411       .  A
C1202      C1203   1.400       .  A
C1202      H1211   1.083       .  S
C1203      C1204   1.405   1_545  A
C1203      H1212   1.084       .  S
C1204      C1210   1.400       .  A
C1204      C1205   1.410       .  A
C1205      C1207   1.407       .  A
C1205      C1206   1.401       .  A
C1206      H1213   1.084       .  S
C1207      C1208   1.400       .  A
C1207      H1214   1.083       .  S
C1208      C1209   1.400       .  A
C1208      H1215   1.083       .  S
C1209      C1210   1.409       .  A
C1210      H1216   1.085       .  S
C1217      C1218   1.402       .  A
C1217      C1222   1.412   1_545  A
C1218      C1219   1.389       .  A
C1218      H1227   1.083       .  S
C1219      C1220   1.399       .  A
C1219      H1228   1.084       .  S
C1220      C1226   1.395       .  A
C1220      C1221   1.412   1_545  A
C1221      C1223   1.410       .  A
C1221      C1222   1.414       .  A
C1222      H1229   1.084       .  S
C1223      C1224   1.409       .  A
C1223      H1230   1.083       .  S
C1224      C1225   1.408       .  A
C1224      H1231   1.083       .  S
C1225      C1226   1.407   1_565  A
C1226      H1232   1.084       .  S
C1233      C1234   1.411       .  A
C1233      C1238   1.412       .  A
C1234      C1235   1.399       .  A
C1234      H1243   1.077       .  S
C1235      C1236   1.401       .  A
C1235      H1244   1.084       .  S
C1236      C1242   1.406       .  A
C1236      C1237   1.411       .  A
C1237      C1239   1.403       .  A
C1237      C1238   1.404       .  A
C1238      H1245   1.084       .  S
C1239      C1240   1.399       .  A
C1239      H1246   1.084       .  S
C1240      C1241   1.405       .  A
C1240      H1247   1.083       .  S
C1241      C1242   1.408       .  A
C1242      H1248   1.084       .  S
C1249      C1250   1.410       .  A
C1249      C1254   1.409       .  A
C1250      C1251   1.391       .  A
C1250      H1259   1.082       .  S
C1251      C1252   1.395       .  A
C1251      H1260   1.084       .  S
C1252      C1258   1.399       .  A
C1252      C1253   1.415       .  A
C1253      C1255   1.406       .  A
C1253      C1254   1.412       .  A
C1254      H1261   1.083       .  S
C1255      C1256   1.403       .  A
C1255      H1262   1.083       .  S
C1256      C1257   1.403       .  A
C1256      H1263   1.081       .  S
C1257      C1258   1.398       .  A
C1258      H1264   1.085       .  S
C1265      C1266   1.412       .  A
C1265      C1270   1.403       .  A
C1266      C1267   1.397       .  A
C1266      H1275   1.082       .  S
C1267      C1268   1.399       .  A
C1267      H1276   1.084       .  S
C1268      C1274   1.405       .  A
C1268      C1269   1.414       .  A
C1269      C1271   1.394       .  A
C1269      C1270   1.396       .  A
C1270      H1277   1.083       .  S
C1271      C1272   1.386       .  A
C1271      H1278   1.084       .  S
C1272      C1273   1.410       .  A
C1272      H1279   1.083       .  S
C1273      C1274   1.405       .  A
C1274      H1280   1.084       .  S
C1281      C1282   1.401       .  A
C1281      C1286   1.407       .  A
C1282      C1283   1.403       .  A
C1282      H1291   1.083       .  S
C1283      C1284   1.408       .  A
C1283      H1292   1.083       .  S
C1284      C1290   1.403       .  A
C1284      C1285   1.410       .  A
C1285      C1287   1.403       .  A
C1285      C1286   1.399       .  A
C1286      H1293   1.085       .  S
C1287      C1288   1.398       .  A
C1287      H1294   1.084       .  S
C1288      C1289   1.403       .  A
C1288      H1295   1.082       .  S
C1289      C1290   1.414       .  A
C1290      H1296   1.083       .  S
C1297      C1298   1.409       .  A
C1297      C1302   1.403   1_655  A
C1298      C1299   1.390       .  A
C1298      H1307   1.083       .  S
C1299      C1300   1.396       .  A
C1299      H1308   1.084       .  S
C1300      C1306   1.396       .  A
C1300      C1301   1.413   1_655  A
C1301      C1303   1.398       .  A
C1301      C1302   1.402       .  A
C1302      H1309   1.084       .  S
C1303      C1304   1.395       .  A
C1303      H1310   1.084       .  S
C1304      C1305   1.414       .  A
C1304      H1311   1.077       .  S
C1305      C1306   1.404   1_455  A
C1306      H1312   1.085       .  S
C1313      C1314   1.407       .  A
C1313      C1318   1.401   1_655  A
C1314      C1315   1.399       .  A
C1314      H1323   1.084       .  S
C1315      C1316   1.404       .  A
C1315      H1324   1.084       .  S
C1316      C1322   1.405       .  A
C1316      C1317   1.412   1_655  A
C1317      C1319   1.398       .  A
C1317      C1318   1.402       .  A
C1318      H1325   1.085       .  S
C1319      C1320   1.395       .  A
C1319      H1326   1.084       .  S
C1320      C1321   1.410   1_455  A
C1320      H1327   1.078       .  S
C1321      C1322   1.414       .  A
C1322      H1328   1.084       .  S
C1329      C1330   1.410       .  A
C1329      C1334   1.412       .  A
C1330      C1331   1.398       .  A
C1330      H1339   1.083       .  S
C1331      C1332   1.401       .  A
C1331      H1340   1.084       .  S
C1332      C1338   1.409       .  A
C1332      C1333   1.414       .  A
C1333      C1335   1.404       .  A
C1333      C1334   1.413       .  A
C1334      H1341   1.084       .  S
C1335      C1336   1.402       .  A
C1335      H1342   1.083       .  S
C1336      C1337   1.407       .  A
C1336      H1343   1.083       .  S
C1337      C1338   1.405       .  A
C1338      H1344   1.080       .  S
C1345      C1346   1.407       .  A
C1345      C1350   1.402       .  A
C1346      C1347   1.398       .  A
C1346      H1355   1.083       .  S
C1347      C1348   1.401       .  A
C1347      H1356   1.084       .  S
C1348      C1354   1.404       .  A
C1348      C1349   1.414       .  A
C1349      C1351   1.400       .  A
C1349      C1350   1.402       .  A
C1350      H1357   1.079       .  S
C1351      C1352   1.395       .  A
C1351      H1358   1.084       .  S
C1352      C1353   1.408       .  A
C1352      H1359   1.083       .  S
C1353      C1354   1.405       .  A
C1354      H1360   1.084       .  S
C1361      C1362   1.409       .  A
C1361      C1366   1.407       .  A
C1362      C1363   1.393       .  A
C1362      H1371   1.083       .  S
C1363      C1364   1.398       .  A
C1363      H1372   1.084       .  S
C1364      C1370   1.405       .  A
C1364      C1365   1.415       .  A
C1365      C1367   1.401       .  A
C1365      C1366   1.412       .  A
C1366      H1373   1.084       .  S
C1367      C1368   1.400       .  A
C1367      H1374   1.083       .  S
C1368      C1369   1.411       .  A
C1368      H1375   1.082       .  S
C1369      C1370   1.404       .  A
C1370      H1376   1.079       .  S
C1377      C1378   1.407       .  A
C1377      C1382   1.411       .  A
C1378      C1379   1.393       .  A
C1378      H1387   1.083       .  S
C1379      C1380   1.399       .  A
C1379      H1388   1.084       .  S
C1380      C1386   1.400       .  A
C1380      C1381   1.411       .  A
C1381      C1383   1.404       .  A
C1381      C1382   1.410       .  A
C1382      H1389   1.084       .  S
C1383      C1384   1.403       .  A
C1383      H1390   1.084       .  S
C1384      C1385   1.407       .  A
C1384      H1391   1.076       .  S
C1385      C1386   1.410       .  A
C1386      H1392   1.082       .  S
C1393      C1394   1.404       .  A
C1393      C1398   1.407       .  A
C1394      C1395   1.397       .  A
C1394      H1403   1.083       .  S
C1395      C1396   1.402       .  A
C1395      H1404   1.083       .  S
C1396      C1402   1.409       .  A
C1396      C1397   1.414       .  A
C1397      C1399   1.403       .  A
C1397      C1398   1.412       .  A
C1398      H1405   1.081       .  S
C1399      C1400   1.402       .  A
C1399      H1406   1.084       .  S
C1400      C1401   1.412       .  A
C1400      H1407   1.083       .  S
C1401      C1402   1.408       .  A
C1402      H1408   1.084       .  S
C1409      C1410   1.409       .  A
C1409      C1414   1.408       .  A
C1410      C1411   1.398       .  A
C1410      H1419   1.083       .  S
C1411      C1412   1.402       .  A
C1411      H1420   1.084       .  S
C1412      C1418   1.407       .  A
C1412      C1413   1.411       .  A
C1413      C1415   1.401       .  A
C1413      C1414   1.411       .  A
C1414      H1421   1.084       .  S
C1415      C1416   1.401       .  A
C1415      H1422   1.083       .  S
C1416      C1417   1.409       .  A
C1416      H1423   1.078       .  S
C1417      C1418   1.416       .  A
C1418      H1424   1.081       .  S
C1425      C1426   1.406       .  A
C1425      C1430   1.405       .  A
C1426      C1427   1.398       .  A
C1426      H1435   1.083       .  S
C1427      C1428   1.403       .  A
C1427      H1436   1.084       .  S
C1428      C1434   1.404       .  A
C1428      C1429   1.413       .  A
C1429      C1431   1.399       .  A
C1429      C1430   1.402       .  A
C1430      H1437   1.084       .  S
C1431      C1432   1.395       .  A
C1431      H1438   1.084       .  S
C1432      C1433   1.408       .  A
C1432      H1439   1.081       .  S
C1433      C1434   1.409       .  A
C1434      H1440   1.083       .  S
C1441      C1442   1.412       .  A
C1441      C1446   1.407       .  A
C1442      C1443   1.400       .  A
C1442      H1451   1.076       .  S
C1443      C1444   1.399       .  A
C1443      H1452   1.084       .  S
C1444      C1450   1.410       .  A
C1444      C1445   1.414       .  A
C1445      C1447   1.398       .  A
C1445      C1446   1.403       .  A
C1446      H1453   1.082       .  S
C1447      C1448   1.392       .  A
C1447      H1454   1.084       .  S
C1448      C1449   1.410       .  A
C1448      H1455   1.084       .  S
C1449      C1450   1.405       .  A
C1450      H1456   1.084       .  S
C1457      C1458   1.411   1_655  A
C1457      C1462   1.404       .  A
C1458      C1459   1.394       .  A
C1458      H1467   1.083       .  S
C1459      C1460   1.397       .  A
C1459      H1468   1.084       .  S
C1460      C1466   1.404       .  A
C1460      C1461   1.414   1_455  A
C1461      C1463   1.395       .  A
C1461      C1462   1.405       .  A
C1462      H1469   1.084       .  S
C1463      C1464   1.395       .  A
C1463      H1470   1.084       .  S
C1464      C1465   1.417       .  A
C1464      H1471   1.077       .  S
C1465      C1466   1.406   1_655  A
C1466      H1472   1.084       .  S
C1473      C1474   1.408       .  A
C1473      C1478   1.402   1_455  A
C1474      C1475   1.396       .  A
C1474      H1483   1.083       .  S
C1475      C1476   1.400       .  A
C1475      H1484   1.084       .  S
C1476      C1482   1.400       .  A
C1476      C1477   1.412   1_455  A
C1477      C1479   1.396       .  A
C1477      C1478   1.398       .  A
C1478      H1485   1.084       .  S
C1479      C1480   1.392       .  A
C1479      H1486   1.084       .  S
C1480      C1481   1.412       .  A
C1480      H1487   1.075       .  S
C1481      C1482   1.408   1_655  A
C1482      H1488   1.085       .  S
C1489      C1490   1.405       .  A
C1489      C1494   1.409       .  A
C1490      C1491   1.391       .  A
C1490      H1499   1.083       .  S
C1491      C1492   1.398       .  A
C1491      H1500   1.084       .  S
C1492      C1498   1.399       .  A
C1492      C1493   1.413       .  A
C1493      C1495   1.402       .  A
C1493      C1494   1.408       .  A
C1494      H1501   1.084       .  S
C1495      C1496   1.401       .  A
C1495      H1502   1.084       .  S
C1496      C1497   1.412       .  A
C1496      H1503   1.081       .  S
C1497      C1498   1.403       .  A
C1498      H1504   1.076       .  S
C1505      C1506   1.406       .  A
C1505      C1510   1.412       .  A
C1506      C1507   1.397       .  A
C1506      H1515   1.083       .  S
C1507      C1508   1.402       .  A
C1507      H1516   1.084       .  S
C1508      C1514   1.403       .  A
C1508      C1509   1.411       .  A
C1509      C1511   1.406       .  A
C1509      C1510   1.409       .  A
C1510      H1517   1.084       .  S
C1511      C1512   1.404       .  A
C1511      H1518   1.084       .  S
C1512      C1513   1.406       .  A
C1512      H1519   1.079       .  S
C1513      C1514   1.411       .  A
C1514      H1520   1.083       .  S
C1521      C1522   1.408       .  A
C1521      C1526   1.409       .  A
C1522      C1523   1.395       .  A
C1522      H1531   1.083       .  S
C1523      C1524   1.401       .  A
C1523      H1532   1.084       .  S
C1524      C1530   1.401       .  A
C1524      C1525   1.411       .  A
C1525      C1527   1.404       .  A
C1525      C1526   1.410       .  A
C1526      H1533   1.084       .  S
C1527      C1528   1.403       .  A
C1527      H1534   1.083       .  S
C1528      C1529   1.407       .  A
C1528      H1535   1.077       .  S
C1529      C1530   1.413       .  A
C1530      H1536   1.082       .  S
C1537      C1538   1.407       .  A
C1537      C1542   1.406       .  A
C1538      C1539   1.398       .  A
C1538      H1547   1.083       .  S
C1539      C1540   1.402       .  A
C1539      H1548   1.084       .  S
C1540      C1546   1.404       .  A
C1540      C1541   1.413       .  A
C1541      C1543   1.399       .  A
C1541      C1542   1.400       .  A
C1542      H1549   1.084       .  S
C1543      C1544   1.393       .  A
C1543      H1550   1.084       .  S
C1544      C1545   1.408       .  A
C1544      H1551   1.083       .  S
C1545      C1546   1.405       .  A
C1546      H1552   1.080       .  S
C1553      C1554   1.409       .  A
C1553      C1558   1.407       .  A
C1554      C1555   1.388       .  A
C1554      H1563   1.083       .  S
C1555      C1556   1.396       .  A
C1555      H1564   1.084       .  S
C1556      C1562   1.393       .  A
C1556      C1557   1.413       .  A
C1557      C1559   1.404       .  A
C1557      C1558   1.404       .  A
C1558      H1565   1.084       .  S
C1559      C1560   1.401       .  A
C1559      H1566   1.083       .  S
C1560      C1561   1.405       .  A
C1560      H1567   1.083       .  S
C1561      C1562   1.396       .  A
C1562      H1568   1.077       .  S
C1569      C1570   1.401       .  A
C1569      C1574   1.400       .  A
C1570      C1571   1.395       .  A
C1570      H1579   1.084       .  S
C1571      C1572   1.403       .  A
C1571      H1580   1.084       .  S
C1572      C1578   1.399       .  A
C1572      C1573   1.413       .  A
C1573      C1575   1.399       .  A
C1573      C1574   1.400       .  A
C1574      H1581   1.085       .  S
C1575      C1576   1.395       .  A
C1575      H1582   1.084       .  S
C1576      C1577   1.409       .  A
C1576      H1583   1.079       .  S
C1577      C1578   1.410       .  A
C1578      H1584   1.081       .  S
C1585      C1586   1.409       .  A
C1585      C1590   1.414       .  A
C1586      C1587   1.396       .  A
C1586      H1595   1.083       .  S
C1587      C1588   1.400       .  A
C1587      H1596   1.084       .  S
C1588      C1594   1.407       .  A
C1588      C1589   1.414       .  A
C1589      C1591   1.407       .  A
C1589      C1590   1.415       .  A
C1590      H1597   1.084       .  S
C1591      C1592   1.405       .  A
C1591      H1598   1.083       .  S
C1592      C1593   1.405       .  A
C1592      H1599   1.083       .  S
C1593      C1594   1.404       .  A
C1594      H1600   1.082       .  S
C1601      C1602   1.407       .  A
C1601      C1606   1.408       .  A
C1602      C1603   1.397       .  A
C1602      H1611   1.083       .  S
C1603      C1604   1.401       .  A
C1603      H1612   1.084       .  S
C1604      C1610   1.404       .  A
C1604      C1605   1.413       .  A
C1605      C1607   1.401       .  A
C1605      C1606   1.404       .  A
C1606      H1613   1.084       .  S
C1607      C1608   1.397       .  A
C1607      H1614   1.084       .  S
C1608      C1609   1.408       .  A
C1608      H1615   1.082       .  S
C1609      C1610   1.405       .  A
C1610      H1616   1.080       .  S
C1617      C1618   1.410       .  A
C1617      C1622   1.411       .  A
C1618      C1619   1.395       .  A
C1618      H1627   1.079       .  S
C1619      C1620   1.399       .  A
C1619      H1628   1.084       .  S
C1620      C1626   1.400       .  A
C1620      C1621   1.411       .  A
C1621      C1623   1.402       .  A
C1621      C1622   1.400       .  A
C1622      H1629   1.084       .  S
C1623      C1624   1.396       .  A
C1623      H1630   1.084       .  S
C1624      C1625   1.408       .  A
C1624      H1631   1.083       .  S
C1625      C1626   1.403       .  A
C1626      H1632   1.084       .  S
C1633      C1634   1.409       .  A
C1633      C1638   1.400       .  A
C1634      C1635   1.396       .  A
C1634      H1643   1.083       .  S
C1635      C1636   1.399       .  A
C1635      H1644   1.084       .  S
C1636      C1642   1.408       .  A
C1636      C1637   1.417       .  A
C1637      C1639   1.397       .  A
C1637      C1638   1.409       .  A
C1638      H1645   1.084       .  S
C1639      C1640   1.396       .  A
C1639      H1646   1.084       .  S
C1640      C1641   1.412       .  A
C1640      H1647   1.081       .  S
C1641      C1642   1.406       .  A
C1642      H1648   1.082       .  S
C1649      C1650   1.411       .  A
C1649      C1654   1.415       .  A
C1650      C1651   1.398       .  A
C1650      H1659   1.076       .  S
C1651      C1652   1.399       .  A
C1651      H1660   1.084       .  S
C1652      C1658   1.406       .  A
C1652      C1653   1.411       .  A
C1653      C1655   1.404       .  A
C1653      C1654   1.408       .  A
C1654      H1661   1.084       .  S
C1655      C1656   1.401       .  A
C1655      H1662   1.084       .  S
C1656      C1657   1.409       .  A
C1656      H1663   1.083       .  S
C1657      C1658   1.408       .  A
C1658      H1664   1.084       .  S
C1665      C1666   1.404       .  A
C1665      C1670   1.406       .  A
C1666      C1667   1.392       .  A
C1666      H1675   1.083       .  S
C1667      C1668   1.400       .  A
C1667      H1676   1.084       .  S
C1668      C1674   1.400       .  A
C1668      C1669   1.414       .  A
C1669      C1671   1.404       .  A
C1669      C1670   1.409       .  A
C1670      H1677   1.082       .  S
C1671      C1672   1.402       .  A
C1671      H1678   1.084       .  S
C1672      C1673   1.408       .  A
C1672      H1679   1.083       .  S
C1673      C1674   1.407       .  A
C1674      H1680   1.084       .  S
C1681      C1682   1.412       .  A
C1681      C1686   1.408   1_554  A
C1682      C1683   1.394       .  A
C1682      H1691   1.075       .  S
C1683      C1684   1.397       .  A
C1683      H1692   1.084       .  S
C1684      C1690   1.398       .  A
C1684      C1685   1.412   1_554  A
C1685      C1687   1.400       .  A
C1685      C1686   1.398       .  A
C1686      H1693   1.085       .  S
C1687      C1688   1.394       .  A
C1687      H1694   1.084       .  S
C1688      C1689   1.406       .  A
C1688      H1695   1.083       .  S
C1689      C1690   1.403   1_556  A
C1690      H1696   1.084       .  S
C1697      C1698   1.402       .  A
C1697      C1702   1.412       .  A
C1698      C1699   1.403       .  A
C1698      H1707   1.083       .  S
C1699      C1700   1.407       .  A
C1699      H1708   1.083       .  S
C1700      C1706   1.408       .  A
C1700      C1701   1.412       .  A
C1701      C1703   1.405   1_556  A
C1701      C1702   1.406       .  A
C1702      H1709   1.085       .  S
C1703      C1704   1.401       .  A
C1703      H1710   1.084       .  S
C1704      C1705   1.403   1_554  A
C1704      H1711   1.083       .  S
C1705      C1706   1.412       .  A
C1706      H1712   1.084       .  S
C1713      C1714   1.408       .  A
C1713      C1718   1.407   1_554  A
C1714      C1715   1.392       .  A
C1714      H1723   1.083       .  S
C1715      C1716   1.398       .  A
C1715      H1724   1.084       .  S
C1716      C1722   1.402       .  A
C1716      C1717   1.414   1_554  A
C1717      C1719   1.400       .  A
C1717      C1718   1.408       .  A
C1718      H1725   1.084       .  S
C1719      C1720   1.397       .  A
C1719      H1726   1.084       .  S
C1720      C1721   1.412   1_556  A
C1720      H1727   1.083       .  S
C1721      C1722   1.406       .  A
C1722      H1728   1.078       .  S
C1729      C1730   1.404       .  A
C1729      C1734   1.403   1_556  A
C1730      C1731   1.402       .  A
C1730      H1739   1.083       .  S
C1731      C1732   1.406       .  A
C1731      H1740   1.083       .  S
C1732      C1738   1.404       .  A
C1732      C1733   1.414   1_556  A
C1733      C1735   1.400       .  A
C1733      C1734   1.392       .  A
C1734      H1741   1.085       .  S
C1735      C1736   1.390       .  A
C1735      H1742   1.084       .  S
C1736      C1737   1.399       .  A
C1736      H1743   1.084       .  S
C1737      C1738   1.404   1_554  A
C1738      H1744   1.085       .  S
C1745      C1746   1.414       .  A
C1745      C1750   1.413       .  A
C1746      C1747   1.397       .  A
C1746      H1755   1.076       .  S
C1747      C1748   1.397       .  A
C1747      H1756   1.084       .  S
C1748      C1754   1.408       .  A
C1748      C1749   1.413       .  A
C1749      C1751   1.401       .  A
C1749      C1750   1.410       .  A
C1750      H1757   1.084       .  S
C1751      C1752   1.398       .  A
C1751      H1758   1.084       .  S
C1752      C1753   1.410       .  A
C1752      H1759   1.083       .  S
C1753      C1754   1.405       .  A
C1754      H1760   1.084       .  S
C1761      C1762   1.402       .  A
C1761      C1766   1.408       .  A
C1762      C1763   1.392       .  A
C1762      H1771   1.084       .  S
C1763      C1764   1.400       .  A
C1763      H1772   1.084       .  S
C1764      C1770   1.396       .  A
C1764      C1765   1.413       .  A
C1765      C1767   1.408       .  A
C1765      C1766   1.411       .  A
C1766      H1773   1.084       .  S
C1767      C1768   1.407       .  A
C1767      H1774   1.083       .  S
C1768      C1769   1.406       .  A
C1768      H1775   1.083       .  S
C1769      C1770   1.405       .  A
C1770      H1776   1.085       .  S
C1777      C1778   1.404       .  A
C1777      C1782   1.408   1_556  A
C1778      C1779   1.394       .  A
C1778      H1787   1.083       .  S
C1779      C1780   1.400       .  A
C1779      H1788   1.083       .  S
C1780      C1786   1.401       .  A
C1780      C1781   1.412   1_556  A
C1781      C1783   1.399       .  A
C1781      C1782   1.404       .  A
C1782      H1789   1.084       .  S
C1783      C1784   1.397       .  A
C1783      H1790   1.084       .  S
C1784      C1785   1.412       .  A
C1784      H1791   1.077       .  S
C1785      C1786   1.408   1_554  A
C1786      H1792   1.085       .  S
C1793      C1794   1.399   1_554  A
C1793      C1798   1.406       .  A
C1794      C1795   1.389       .  A
C1794      H1803   1.084       .  S
C1795      C1796   1.398       .  A
C1795      H1804   1.084       .  S
C1796      C1802   1.395       .  A
C1796      C1797   1.414   1_556  A
C1797      C1799   1.406       .  A
C1797      C1798   1.409       .  A
C1798      H1805   1.084       .  S
C1799      C1800   1.405       .  A
C1799      H1806   1.084       .  S
C1800      C1801   1.409       .  A
C1800      H1807   1.083       .  S
C1801      C1802   1.402   1_554  A
C1802      H1808   1.084       .  S
C1809      C1810   1.408       .  A
C1809      C1814   1.413   1_554  A
C1810      C1811   1.391       .  A
C1810      H1819   1.078       .  S
C1811      C1812   1.398       .  A
C1811      H1820   1.084       .  S
C1812      C1818   1.391       .  A
C1812      C1813   1.409   1_554  A
C1813      C1815   1.407       .  A
C1813      C1814   1.399       .  A
C1814      H1821   1.084       .  S
C1815      C1816   1.401       .  A
C1815      H1822   1.083       .  S
C1816      C1817   1.402       .  A
C1816      H1823   1.083       .  S
C1817      C1818   1.403   1_556  A
C1818      H1824   1.084       .  S
C1825      C1826   1.412       .  A
C1825      C1830   1.400       .  A
C1826      C1827   1.396       .  A
C1826      H1835   1.083       .  S
C1827      C1828   1.398       .  A
C1827      H1836   1.084       .  S
C1828      C1834   1.411       .  A
C1828      C1829   1.419       .  A
C1829      C1831   1.396       .  A
C1829      C1830   1.406       .  A
C1830      H1837   1.084       .  S
C1831      C1832   1.392       .  A
C1831      H1838   1.084   1_554  S
C1832      C1833   1.410       .  A
C1832      H1839   1.083   1_554  S
C1833      C1834   1.401       .  A
C1834      H1840   1.084       .  S
C1841      C1842   1.409       .  A
C1841      C1846   1.411   1_565  A
C1842      C1843   1.400       .  A
C1842      H1851   1.083       .  S
C1843      C1844   1.403       .  A
C1843      H1852   1.084       .  S
C1844      C1850   1.408       .  A
C1844      C1845   1.412   1_565  A
C1845      C1847   1.402       .  A
C1845      C1846   1.409       .  A
C1846      H1853   1.084       .  S
C1847      C1848   1.399       .  A
C1847      H1854   1.083       .  S
C1848      C1849   1.410       .  A
C1848      H1855   1.082       .  S
C1849      C1850   1.414   1_545  A
C1850      H1856   1.081       .  S
C1857      C1858   1.407       .  A
C1857      C1862   1.406   1_545  A
C1858      C1859   1.397       .  A
C1858      H1867   1.083       .  S
C1859      C1860   1.402       .  A
C1859      H1868   1.084       .  S
C1860      C1866   1.408       .  A
C1860      C1861   1.414   1_545  A
C1861      C1863   1.399       .  A
C1861      C1862   1.406       .  A
C1862      H1869   1.084       .  S
C1863      C1864   1.395       .  A
C1863      H1870   1.083       .  S
C1864      C1865   1.410   1_565  A
C1864      H1871   1.083       .  S
C1865      C1866   1.412       .  A
C1866      H1872   1.080       .  S
C1873      C1874   1.405       .  A
C1873      C1878   1.397       .  A
C1874      C1875   1.400       .  A
C1874      H1883   1.083       .  S
C1875      C1876   1.403       .  A
C1875      H1884   1.084       .  S
C1876      C1882   1.407       .  A
C1876      C1877   1.415       .  A
C1877      C1879   1.396       .  A
C1877      C1878   1.399       .  A
C1878      H1885   1.083       .  S
C1879      C1880   1.390       .  A
C1879      H1886   1.084       .  S
C1880      C1881   1.410       .  A
C1880      H1887   1.083       .  S
C1881      C1882   1.407       .  A
C1882      H1888   1.084       .  S
C1889      C1890   1.408       .  A
C1889      C1894   1.410       .  A
C1890      C1891   1.401       .  A
C1890      H1899   1.083       .  S
C1891      C1892   1.404       .  A
C1891      H1900   1.084       .  S
C1892      C1898   1.404       .  A
C1892      C1893   1.411       .  A
C1893      C1895   1.404       .  A
C1893      C1894   1.403       .  A
C1894      H1901   1.084       .  S
C1895      C1896   1.398       .  A
C1895      H1902   1.083       .  S
C1896      C1897   1.403       .  A
C1896      H1903   1.083       .  S
C1897      C1898   1.406       .  A
C1898      H1904   1.079       .  S
C1905      C1906   1.409       .  A
C1905      C1910   1.407       .  A
C1906      C1907   1.405       .  A
C1906      H1915   1.083       .  S
C1907      C1908   1.407       .  A
C1907      H1916   1.084       .  S
C1908      C1914   1.412       .  A
C1908      C1909   1.412       .  A
C1909      C1911   1.401       .  A
C1909      C1910   1.405       .  A
C1910      H1917   1.084       .  S
C1911      C1912   1.397       .  A
C1911      H1918   1.084       .  S
C1912      C1913   1.405       .  A
C1912      H1919   1.082       .  S
C1913      C1914   1.414       .  A
C1914      H1920   1.083       .  S
C1921      C1922   1.405       .  A
C1921      C1926   1.405       .  A
C1922      C1923   1.398       .  A
C1922      H1931   1.083       .  S
C1923      C1924   1.402       .  A
C1923      H1932   1.083       .  S
C1924      C1930   1.405       .  A
C1924      C1925   1.412       .  A
C1925      C1927   1.398       .  A
C1925      C1926   1.404       .  A
C1926      H1933   1.085       .  S
C1927      C1928   1.397       .  A
C1927      H1934   1.084       .  S
C1928      C1929   1.415       .  A
C1928      H1935   1.075       .  S
C1929      C1930   1.411       .  A
C1930      H1936   1.084       .  S
C1937      C1938   1.414       .  A
C1937      C1942   1.416       .  A
C1938      C1939   1.398       .  A
C1938      H1947   1.079       .  S
C1939      C1940   1.399       .  A
C1939      H1948   1.084       .  S
C1940      C1946   1.408       .  A
C1940      C1941   1.412       .  A
C1941      C1943   1.406       .  A
C1941      C1942   1.414       .  A
C1942      H1949   1.083       .  S
C1943      C1944   1.404       .  A
C1943      H1950   1.083       .  S
C1944      C1945   1.405       .  A
C1944      H1951   1.083       .  S
C1945      C1946   1.408       .  A
C1946      H1952   1.084       .  S
C1953      C1954   1.410       .  A
C1953      C1958   1.414       .  A
C1954      C1955   1.403       .  A
C1954      H1963   1.077       .  S
C1955      C1956   1.402       .  A
C1955      H1964   1.083       .  S
C1956      C1962   1.413       .  A
C1956      C1957   1.411       .  A
C1957      C1959   1.400       .  A
C1957      C1958   1.405       .  A
C1958      H1965   1.081       .  S
C1959      C1960   1.395       .  A
C1959      H1966   1.084       .  S
C1960      C1961   1.410       .  A
C1960      H1967   1.083       .  S
C1961      C1962   1.410       .  A
C1962      H1968   1.084       .  S
C1969      C1970   1.405       .  A
C1969      C1974   1.406       .  A
C1970      C1971   1.396       .  A
C1970      H1979   1.081       .  S
C1971      C1972   1.401       .  A
C1971      H1980   1.084       .  S
C1972      C1978   1.401       .  A
C1972      C1973   1.413       .  A
C1973      C1975   1.400       .  A
C1973      C1974   1.399       .  A
C1974      H1981   1.084       .  S
C1975      C1976   1.395       .  A
C1975      H1982   1.084       .  S
C1976      C1977   1.408       .  A
C1976      H1983   1.083       .  S
C1977      C1978   1.406       .  A
C1978      H1984   1.084       .  S
C1985      C1986   1.406       .  A
C1985      C1990   1.402       .  A
C1986      C1987   1.401       .  A
C1986      H1995   1.081       .  S
C1987      C1988   1.404       .  A
C1987      H1996   1.084       .  S
C1988      C1994   1.410       .  A
C1988      C1989   1.415       .  A
C1989      C1991   1.397       .  A
C1989      C1990   1.400       .  A
C1990      H1997   1.084       .  S
C1991      C1992   1.392       .  A
C1991      H1998   1.084       .  S
C1992      C1993   1.408       .  A
C1992      H1999   1.083       .  S
C1993      C1994   1.408       .  A
C1994      H2000   1.084       .  S
C2001      C2002   1.409       .  A
C2001      C2006   1.407       .  A
C2002      C2003   1.399       .  A
C2002      H2011   1.082       .  S
C2003      C2004   1.402       .  A
C2003      H2012   1.084       .  S
C2004      C2010   1.407       .  A
C2004      C2005   1.413       .  A
C2005      C2007   1.403       .  A
C2005      C2006   1.407       .  A
C2006      H2013   1.081       .  S
C2007      C2008   1.400       .  A
C2007      H2014   1.084       .  S
C2008      C2009   1.407       .  A
C2008      H2015   1.083       .  S
C2009      C2010   1.410       .  A
C2010      H2016   1.084       .  S
C2017      C2018   1.412       .  A
C2017      C2022   1.411       .  A
C2018      C2019   1.399       .  A
C2018      H2027   1.076       .  S
C2019      C2020   1.401       .  A
C2019      H2028   1.084       .  S
C2020      C2026   1.407       .  A
C2020      C2021   1.412       .  A
C2021      C2023   1.401       .  A
C2021      C2022   1.404       .  A
C2022      H2029   1.084       .  S
C2023      C2024   1.397       .  A
C2023      H2030   1.084       .  S
C2024      C2025   1.407       .  A
C2024      H2031   1.083       .  S
C2025      C2026   1.408       .  A
C2026      H2032   1.084       .  S
C2033      C2034   1.411       .  A
C2033      C2038   1.407       .  A
C2034      C2035   1.404       .  A
C2034      H2043   1.081       .  S
C2035      C2036   1.404       .  A
C2035      H2044   1.084       .  S
C2036      C2042   1.410       .  A
C2036      C2037   1.412       .  A
C2037      C2039   1.400       .  A
C2037      C2038   1.399       .  A
C2038      H2045   1.078       .  S
C2039      C2040   1.392       .  A
C2039      H2046   1.084       .  S
C2040      C2041   1.405       .  A
C2040      H2047   1.084       .  S
C2041      C2042   1.409       .  A
C2042      H2048   1.084       .  S
C2049      C2050   1.403       .  A
C2049      C2054   1.407       .  A
C2050      C2051   1.399       .  A
C2050      H2059   1.083       .  S
C2051      C2052   1.405       .  A
C2051      H2060   1.084       .  S
C2052      C2058   1.400       .  A
C2052      C2053   1.412       .  A
C2053      C2055   1.405       .  A
C2053      C2054   1.400       .  A
C2054      H2061   1.084       .  S
C2055      C2056   1.399       .  A
C2055      H2062   1.083       .  S
C2056      C2057   1.400       .  A
C2056      H2063   1.083       .  S
C2057      C2058   1.410       .  A
C2058      H2064   1.085       .  S
C2065      C2066   1.410       .  A
C2065      C2070   1.413   1_545  A
C2066      C2067   1.398       .  A
C2066      H2075   1.078       .  S
C2067      C2068   1.401       .  A
C2067      H2076   1.084       .  S
C2068      C2074   1.404       .  A
C2068      C2069   1.411   1_545  A
C2069      C2071   1.404       .  A
C2069      C2070   1.405       .  A
C2070      H2077   1.084       .  S
C2071      C2072   1.400       .  A
C2071      H2078   1.084       .  S
C2072      C2073   1.404       .  A
C2072      H2079   1.083       .  S
C2073      C2074   1.406   1_565  A
C2074      H2080   1.084       .  S
C2081      C2082   1.408   1_545  A
C2081      C2086   1.404       .  A
C2082      C2083   1.400       .  A
C2082      H2091   1.083       .  S
C2083      C2084   1.404   1_565  A
C2083      H2092   1.084       .  S
C2084      C2090   1.408   1_545  A
C2084      C2085   1.412       .  A
C2085      C2087   1.398       .  A
C2085      C2086   1.406       .  A
C2086      H2093   1.084       .  S
C2087      C2088   1.397       .  A
C2087      H2094   1.084       .  S
C2088      C2089   1.414       .  A
C2088      H2095   1.075       .  S
C2089      C2090   1.414   1_545  A
C2090      H2096   1.084       .  S
C2097      C2098   1.400       .  A
C2097      C2102   1.409       .  A
C2098      C2099   1.393       .  A
C2098      H2107   1.083       .  S
C2099      C2100   1.400       .  A
C2099      H2108   1.084       .  S
C2100      C2106   1.403       .  A
C2100      C2101   1.414       .  A
C2101      C2103   1.406       .  A
C2101      C2102   1.414       .  A
C2102      H2109   1.084       .  S
C2103      C2104   1.406       .  A
C2103      H2110   1.084       .  S
C2104      C2105   1.409       .  A
C2104      H2111   1.081       .  S
C2105      C2106   1.407       .  A
C2106      H2112   1.083       .  S
C2113      C2114   1.403       .  A
C2113      C2118   1.406       .  A
C2114      C2115   1.399       .  A
C2114      H2123   1.079       .  S
C2115      C2116   1.402       .  A
C2115      H2124   1.083       .  S
C2116      C2122   1.410       .  A
C2116      C2117   1.415       .  A
C2117      C2119   1.400       .  A
C2117      C2118   1.410       .  A
C2118      H2125   1.084       .  S
C2119      C2120   1.398       .  A
C2119      H2126   1.084       .  S
C2120      C2121   1.410       .  A
C2120      H2127   1.083       .  S
C2121      C2122   1.409       .  A
C2122      H2128   1.084       .  S
C2129      C2130   1.406       .  A
C2129      C2134   1.411       .  A
C2130      C2131   1.392       .  A
C2130      H2139   1.083       .  S
C2131      C2132   1.399       .  A
C2131      H2140   1.084       .  S
C2132      C2138   1.401       .  A
C2132      C2133   1.412       .  A
C2133      C2135   1.404       .  A
C2133      C2134   1.413       .  A
C2134      H2141   1.084       .  S
C2135      C2136   1.405       .  A
C2135      H2142   1.084       .  S
C2136      C2137   1.411       .  A
C2136      H2143   1.078       .  S
C2137      C2138   1.409       .  A
C2138      H2144   1.081       .  S
C2145      C2146   1.404       .  A
C2145      C2150   1.407       .  A
C2146      C2147   1.392       .  A
C2146      H2155   1.084       .  S
C2147      C2148   1.400       .  A
C2147      H2156   1.084       .  S
C2148      C2154   1.403       .  A
C2148      C2149   1.413       .  A
C2149      C2151   1.402       .  A
C2149      C2150   1.412       .  A
C2150      H2157   1.084       .  S
C2151      C2152   1.403       .  A
C2151      H2158   1.084       .  S
C2152      C2153   1.411       .  A
C2152      H2159   1.079       .  S
C2153      C2154   1.410       .  A
C2154      H2160   1.082       .  S
C2161      C2162   1.407       .  A
C2161      C2166   1.409       .  A
C2162      C2163   1.394       .  A
C2162      H2171   1.083       .  S
C2163      C2164   1.398       .  A
C2163      H2172   1.084       .  S
C2164      C2170   1.401       .  A
C2164      C2165   1.412       .  A
C2165      C2167   1.401       .  A
C2165      C2166   1.409       .  A
C2166      H2173   1.084       .  S
C2167      C2168   1.400       .  A
C2167      H2174   1.084       .  S
C2168      C2169   1.414       .  A
C2168      H2175   1.077       .  S
C2169      C2170   1.407       .  A
C2170      H2176   1.085       .  S
C2177      C2178   1.409       .  A
C2177      C2182   1.405       .  A
C2178      C2179   1.395       .  A
C2178      H2187   1.083       .  S
C2179      C2180   1.400       .  A
C2179      H2188   1.084       .  S
C2180      C2186   1.403       .  A
C2180      C2181   1.412       .  A
C2181      C2183   1.397       .  A
C2181      C2182   1.403       .  A
C2182      H2189   1.084       .  S
C2183      C2184   1.395       .  A
C2183      H2190   1.084       .  S
C2184      C2185   1.414       .  A
C2184      H2191   1.077       .  S
C2185      C2186   1.408       .  A
C2186      H2192   1.084       .  S
C2193      C2194   1.411       .  A
C2193      C2198   1.404       .  A
C2194      C2195   1.390       .  A
C2194      H2203   1.083       .  S
C2195      C2196   1.396       .  A
C2195      H2204   1.084       .  S
C2196      C2202   1.400       .  A
C2196      C2197   1.417       .  A
C2197      C2199   1.399       .  A
C2197      C2198   1.403       .  A
C2198      H2205   1.084       .  S
C2199      C2200   1.394       .  A
C2199      H2206   1.084       .  S
C2200      C2201   1.405       .  A
C2200      H2207   1.083       .  S
C2201      C2202   1.397       .  A
C2202      H2208   1.083       .  S
C2209      C2210   1.404       .  A
C2209      C2214   1.406       .  A
C2210      C2211   1.396       .  A
C2210      H2219   1.084       .  S
C2211      C2212   1.403       .  A
C2211      H2220   1.084       .  S
C2212      C2218   1.402       .  A
C2212      C2213   1.410       .  A
C2213      C2215   1.400       .  A
C2213      C2214   1.407       .  A
C2214      H2221   1.084       .  S
C2215      C2216   1.400       .  A
C2215      H2222   1.084       .  S
C2216      C2217   1.411       .  A
C2216      H2223   1.077       .  S
C2217      C2218   1.416       .  A
C2218      H2224   1.078       .  S
C2225      C2226   1.401       .  A
C2225      C2230   1.400       .  A
C2226      C2227   1.399       .  A
C2226      H2235   1.083       .  S
C2227      C2228   1.404       .  A
C2227      H2236   1.083       .  S
C2228      C2234   1.407       .  A
C2228      C2229   1.416       .  A
C2229      C2231   1.398       .  A
C2229      C2230   1.402       .  A
C2230      H2237   1.084       .  S
C2231      C2232   1.394       .  A
C2231      H2238   1.084       .  S
C2232      C2233   1.409       .  A
C2232      H2239   1.083       .  S
C2233      C2234   1.406       .  A
C2234      H2240   1.084       .  S
C2241      C2242   1.405       .  A
C2241      C2246   1.410       .  A
C2242      C2243   1.392       .  A
C2242      H2251   1.083       .  S
C2243      C2244   1.399       .  A
C2243      H2252   1.084       .  S
C2244      C2250   1.396       .  A
C2244      C2245   1.412       .  A
C2245      C2247   1.405       .  A
C2245      C2246   1.403       .  A
C2246      H2253   1.084       .  S
C2247      C2248   1.400       .  A
C2247      H2254   1.084       .  S
C2248      C2249   1.406       .  A
C2248      H2255   1.083       .  S
C2249      C2250   1.398       .  A
C2250      H2256   1.079       .  S
