geometry optimzed in LAMMPS
_audit_creation_date              2020-11-30 
_audit_creation_method            'lammps2cif' 
_symmetry_space_group_name_H-M    'P1' 
_symmetry_Int_Tables_number       1 
_symmetry_cell_setting            triclinic 
loop_ 
_symmetry_equiv_pos_as_xyz 
  x,y,z 
_cell_length_a                    34.11229895 
_cell_length_b                    44.713922964700835 
_cell_length_c                    34.68402358272179 
_cell_angle_alpha                 89.82341207160174 
_cell_angle_beta                  89.99793342834013 
_cell_angle_gamma                 89.80841368946827 
loop_ 
_atom_site_label 
_atom_site_type_symbol 
_atom_site_fract_x 
_atom_site_fract_y 
_atom_site_fract_z 
_atom_site_charge 
N1          N  0.99938924  0.03786434  0.46617242    -0.36500
N2          N  0.93992575  0.49807460  0.99721281    -0.57000
N3          N  0.00196807  0.46030297  0.02947464    -0.36500
N4          N  0.06133251  0.49881870  0.99540038    -0.57000
C5          C  0.96692355  0.05074697  0.45091561     0.27100
C6          C  0.03087760  0.05105408  0.44964748     0.27100
C7          C  0.97054414  0.44217845  0.03364348     0.27100
C8          C  0.03441238  0.44313536  0.03410334     0.27100
C9          C  0.91616297  0.02070993  0.48580630     0.35700
C10         C  0.91754685  0.47885912  0.01770746     0.35700
C11         C  0.08385321  0.02154629  0.48248782     0.35700
C12         C  0.08508198  0.48069806  0.01624194     0.35700
C13         C  0.97799754  0.07257231  0.42458695    -0.21800
C14         C  0.01824202  0.07283451  0.42389715    -0.21800
C15         C  0.98320798  0.41322712  0.04121142    -0.21800
C16         C  0.02349099  0.41386794  0.04166016    -0.21800
C17         C  0.87831586  0.01567219  0.49880896    -0.22800
C18         C  0.87919141  0.48917396  0.01902786    -0.22800
C19         C  0.12231176  0.01739127  0.49440218    -0.22800
C20         C  0.12301195  0.49168695  0.01607265    -0.22800
C21         C  0.92768008  0.04505909  0.46215600    -0.18200
C22         C  0.07064207  0.04567284  0.45929843    -0.18200
C23         C  0.07363514  0.45331856  0.03324820    -0.18200
C24         C  0.93075175  0.45128852  0.03325656    -0.18200
H25         H  0.95913358  0.08739353  0.40820153     0.14700
H26         H  0.03608034  0.08790250  0.40692823     0.14700
H27         H  0.96526886  0.39367493  0.04623123     0.14700
H28         H  0.04259194  0.39491098  0.04690579     0.14700
H29         H  0.85267276  0.02949271  0.49393573     0.13000
H30         H  0.85434142  0.47855770  0.03275032     0.13000
H31         H  0.14733657  0.03143441  0.48827449     0.13000
H32         H  0.14865521  0.48197474  0.02963387     0.13000
H33         H  0.00007318  0.02355523  0.48952117     0.26300
H34         H  0.00129898  0.48348969  0.02822250     0.26300
O35         O  0.31731758  0.35935574  0.12512216    -0.57700
C36         C  0.25823315  0.29423103  0.06488180     0.74900
O37         O  0.21717447  0.30790020  0.18007614    -0.58800
C38         C  0.31258762  0.37467598  0.15547535     0.74900
C39         C  0.19397504  0.37769077  0.10089010     0.77300
Cd40       Cd  0.25226101  0.33552019  0.12819124     1.37500
O41         O  0.28734080  0.30989903  0.07494456    -0.57700
O42         O  0.22549185  0.37241117  0.08291436    -0.56500
C43         C  0.24722421  0.29411192  0.19236440     0.77300
O44         O  0.18919110  0.36358150  0.13230569    -0.58900
O45         O  0.22709327  0.29802485  0.08409417    -0.57300
O46         O  0.27969442  0.37239318  0.17200449    -0.57300
O47         O  0.27874716  0.29928332  0.17440079    -0.56500
O48         O  0.31173025  0.13300498  0.38783177    -0.57700
C49         C  0.25866675  0.20544331  0.44399583     0.74900
O50         O  0.21818995  0.19355832  0.32826705    -0.58800
C51         C  0.31105157  0.12285130  0.35376780     0.74900
C52         C  0.19116147  0.12524342  0.40356272     0.77300
Cd53       Cd  0.25259255  0.16513924  0.37996555     1.37500
O54         O  0.28910338  0.19329165  0.42998354    -0.57700
O55         O  0.22108160  0.12991865  0.42416239    -0.54100
C56         C  0.24841515  0.20801370  0.31806772     0.77300
O57         O  0.18931038  0.13909492  0.37166589    -0.58900
O58         O  0.22639419  0.19908530  0.42817141    -0.57300
O59         O  0.28368323  0.13221458  0.33228195    -0.57300
O60         O  0.27928210  0.20326730  0.33733653    -0.56500
N61         N  0.50308379  0.46478006  0.21348221    -0.36500
N62         N  0.56236896  0.00316046  0.24712333    -0.57000
N63         N  0.50112611  0.03880853  0.28259030    -0.36500
N64         N  0.44187652  0.99947944  0.25180933    -0.57000
C65         C  0.53568619  0.44802971  0.20775273     0.27100
C66         C  0.47185615  0.44651577  0.20934077     0.27100
C67         C  0.53323229  0.04972795  0.30042698     0.27100
C68         C  0.46952033  0.04765477  0.30322053     0.27100
C69         C  0.58505174  0.48698646  0.22290856     0.35700
C70         C  0.58384190  0.02705110  0.25796271     0.35700
C71         C  0.41949686  0.48241802  0.22849956     0.35700
C72         C  0.41841168  0.02158529  0.26519628     0.35700
C73         C  0.52499336  0.41883025  0.19950757    -0.21800
C74         C  0.48470367  0.41787623  0.20049690    -0.21800
C75         C  0.52193087  0.06551266  0.33298460    -0.21800
C76         C  0.48167660  0.06444837  0.33452989    -0.21800
C77         C  0.62116467  0.50061345  0.21830849    -0.22800
C78         C  0.62034173  0.02611928  0.24038064    -0.22800
C79         C  0.38152982  0.49358240  0.22733856    -0.22800
C80         C  0.38080449  0.01832133  0.25074858    -0.22800
C81         C  0.57468770  0.45876687  0.20780860    -0.18200
C82         C  0.43208352  0.45551109  0.21094933    -0.18200
C83         C  0.43007032  0.04356822  0.29206685    -0.18200
C84         C  0.57196776  0.04819108  0.28597697    -0.18200
H85         H  0.54419213  0.40016103  0.19316913     0.14700
H86         H  0.46690008  0.39835270  0.19501778     0.14700
H87         H  0.54065416  0.07735731  0.35292582     0.14700
H88         H  0.46348058  0.07536781  0.35584400     0.14700
H89         H  0.64567883  0.49275791  0.20126278     0.13000
H90         H  0.64415055  0.04184103  0.24368054     0.13000
H91         H  0.35679778  0.48459771  0.21168631     0.13000
H92         H  0.35541131  0.03211872  0.25672931     0.13000
H93         H  0.50196529  0.48793270  0.21587711     0.26300
H94         H  0.50051201  0.02961645  0.25510485     0.26300
O95         O  0.81570643  0.35736702  0.12439505    -0.57700
C96         C  0.75775172  0.29048461  0.18178600     0.74900
O97         O  0.68561433  0.35964411  0.12085257    -0.58800
C98         C  0.81375667  0.36923617  0.09124199     0.74900
C99         C  0.73794279  0.29292767  0.05935145     0.77300
Cd100      Cd  0.74998207  0.33412507  0.12156664     1.37500
O101        O  0.78667092  0.30646586  0.17175901    -0.57700
O102        O  0.76343868  0.28866867  0.08523509    -0.56500
C103        C  0.69249008  0.37691686  0.14886226     0.77300
O104        O  0.71689390  0.31618977  0.06250347    -0.58900
O105        O  0.72533563  0.29615523  0.16555814    -0.57300
O106        O  0.78232188  0.36507815  0.07282645    -0.57300
O107        O  0.72555470  0.37385329  0.16495129    -0.56500
O108        O  0.68113377  0.15144868  0.36689071    -0.57700
C109        C  0.73726416  0.20813204  0.43480749     0.74900
O110        O  0.81075653  0.13580419  0.36585534    -0.58800
C111        C  0.68882988  0.12663516  0.35098578     0.74900
C112        C  0.76165843  0.20422784  0.30606793     0.77300
Cd113      Cd  0.75051969  0.16663516  0.37309132     1.37500
O114        O  0.71939851  0.18337114  0.43382326    -0.57700
O115        O  0.78918188  0.19959343  0.32983992    -0.56500
C116        C  0.81178854  0.12734210  0.40073171     0.77300
O117        O  0.72998170  0.19055207  0.31274704    -0.58900
O118        O  0.75951306  0.21402025  0.40668592    -0.57300
O119        O  0.72465233  0.12042015  0.34599873    -0.57300
O120        O  0.78578376  0.13807395  0.42266591    -0.56500
C121        C  0.76145614  0.26659587  0.21115680    -0.06000
C122        C  0.78848683  0.27018723  0.24126545    -0.17100
C123        C  0.79086131  0.24950279  0.27160222     0.11200
C124        C  0.76512572  0.22471702  0.27247059    -0.05900
C125        C  0.73923741  0.22058741  0.24144375    -0.17200
C126        C  0.73764675  0.24076120  0.21063788     0.11200
S127        S  0.82516759  0.25739654  0.30959624    -0.32100
S128        S  0.70534744  0.23165678  0.17121576    -0.32100
H129        H  0.73134725  0.24137695  0.14230841     0.29200
H130        H  0.84553797  0.23026973  0.30455311     0.29200
H131        H  0.80718693  0.28973038  0.24179734     0.19800
H132        H  0.71996153  0.20136779  0.24109261     0.19800
C133        C  0.73350153  0.22906969  0.46728722    -0.06000
C134        C  0.72867821  0.25960956  0.45914114    -0.17100
C135        C  0.72864385  0.28092503  0.48859054     0.11200
C136        C  0.73376741  0.27161957  0.02724879    -0.05900
C137        C  0.73775193  0.24099155  0.03541516    -0.17200
C138        C  0.73767547  0.21969166  0.00599964     0.11200
S139        S  0.72454741  0.31964780  0.47456939    -0.32100
S140        S  0.74546812  0.18118694  0.01963633    -0.32100
H141        H  0.77126587  0.17466385  0.48927624     0.29200
H142        H  0.75362764  0.32975855  0.99993748     0.29200
H143        H  0.72585497  0.26699018  0.42946533     0.19800
H144        H  0.74190803  0.23362579  0.06494640     0.19800
C145        C  0.60622259  0.43873035  0.19285217    -0.06000
C146        C  0.60750741  0.43248145  0.15324008    -0.17100
C147        C  0.63591281  0.41318481  0.13787150     0.11200
C148        C  0.66340903  0.39917734  0.16267347    -0.05900
C149        C  0.66262276  0.40605317  0.20214426    -0.17200
C150        C  0.63421887  0.42528141  0.21749585     0.11200
S151        S  0.63656762  0.40851291  0.08627727    -0.32100
S152        S  0.63458724  0.43097902  0.26892965    -0.32100
H153        H  0.59366302  0.43287706  0.27303708     0.29200
H154        H  0.67770819  0.40919811  0.08324890     0.29200
H155        H  0.58637089  0.44295871  0.13412427     0.19800
H156        H  0.68349292  0.39554256  0.22150685     0.19800
C157        C  0.60174001  0.06888892  0.30235340    -0.06000
C158        C  0.63268369  0.05669000  0.32396340    -0.17100
C159        C  0.66064559  0.07499360  0.34141759     0.11200
C160        C  0.65774779  0.10638920  0.33740294    -0.05900
C161        C  0.62613582  0.11867945  0.31680852    -0.17200
C162        C  0.59860176  0.10033711  0.29864100     0.11200
S163        S  0.69836709  0.05688205  0.36956264    -0.32100
S164        S  0.56089723  0.11842168  0.27034883    -0.32100
H165        H  0.55560153  0.09493319  0.24403533     0.29200
H166        H  0.70158863  0.07978709  0.39707697     0.29200
H167        H  0.63475456  0.03265518  0.32762817     0.19800
H168        H  0.62390151  0.14272444  0.31329415     0.19800
C169        C  0.34106859  0.10184609  0.33901173    -0.06000
C170        C  0.35651702  0.10716785  0.30212530    -0.17100
C171        C  0.38633442  0.08916823  0.28696214     0.11200
C172        C  0.39991955  0.06420887  0.30816596    -0.05900
C173        C  0.38420210  0.05854366  0.34487946    -0.17200
C174        C  0.35514546  0.07715962  0.36060520     0.11200
S175        S  0.40578013  0.09916466  0.24032114    -0.32100
S176        S  0.33622519  0.06756529  0.40755001    -0.32100
H177        H  0.29719690  0.07550823  0.39916401     0.29200
H178        H  0.44437491  0.08958819  0.24752078     0.29200
H179        H  0.34612299  0.12612694  0.28541411     0.19800
H180        H  0.39447830  0.03936713  0.36122221     0.19800
C181        C  0.40177664  0.43477650  0.19578842    -0.06000
C182        C  0.37623725  0.42126453  0.22223114    -0.17100
C183        C  0.34719142  0.40130030  0.21013786     0.11200
C184        C  0.34363966  0.39455800  0.17043186    -0.05900
C185        C  0.37006396  0.40739579  0.14414576    -0.17200
C186        C  0.39869024  0.42765085  0.15623533     0.11200
S187        S  0.31652136  0.38358822  0.24608520    -0.32100
S188        S  0.42996658  0.44370754  0.11968338    -0.32100
H189        H  0.43822794  0.47045720  0.13915791     0.29200
H190        H  0.33168020  0.39853118  0.27842840     0.29200
H191        H  0.37942666  0.42634787  0.25256872     0.19800
H192        H  0.36771920  0.40226911  0.11371301     0.19800
C193        C  0.24641121  0.27267635  0.22537987    -0.06000
C194        C  0.27955302  0.25443086  0.23143651    -0.17100
C195        C  0.28067774  0.23296662  0.26081079     0.11200
C196        C  0.24796541  0.22936442  0.28538492    -0.05900
C197        C  0.21479074  0.24744758  0.27954883    -0.17200
C198        C  0.21396442  0.26940346  0.25057015     0.11200
S199        S  0.32426572  0.21012367  0.26426398    -0.32100
S200        S  0.17160394  0.29347637  0.24899261    -0.32100
H201        H  0.19394279  0.31988121  0.24752505     0.29200
H202        H  0.30399743  0.18334128  0.27160873     0.29200
H203        H  0.30480112  0.25643643  0.21265999     0.19800
H204        H  0.18987421  0.24529986  0.29873882     0.19800
C205        C  0.25994717  0.27181637  0.03341087    -0.06000
C206        C  0.23090197  0.24958559  0.03287472    -0.17100
C207        C  0.23093837  0.22697581  0.00523877     0.11200
C208        C  0.26032740  0.22648825  0.47662390    -0.05900
C209        C  0.28988917  0.24823526  0.47734126    -0.17200
C210        C  0.28964510  0.27114979  0.50487025     0.11200
S211        S  0.19321948  0.19888465  0.00890168    -0.32100
S212        S  0.32666620  0.29959311  0.50041952    -0.32100
H213        H  0.30009121  0.32342326  0.00468259     0.29200
H214        H  0.21715835  0.17498795  0.49684777     0.29200
H215        H  0.20817067  0.24937286  0.05469968     0.19800
H216        H  0.31224027  0.24825889  0.45512764     0.19800
C217        C  0.89701178  0.06593965  0.44748676    -0.06000
C218        C  0.88239570  0.06157698  0.41011293    -0.17100
C219        C  0.85485297  0.08124374  0.39396360     0.11200
C220        C  0.84140115  0.10598536  0.41562037    -0.05900
C221        C  0.85570455  0.11006541  0.45322309    -0.17200
C222        C  0.88376423  0.09071591  0.46912250     0.11200
S223        S  0.83687438  0.07273645  0.34637948    -0.32100
S224        S  0.90115546  0.09897449  0.01714015    -0.32100
H225        H  0.93804579  0.08520573  0.01396941     0.29200
H226        H  0.79747226  0.07931884  0.35498958     0.29200
H227        H  0.89259940  0.04263858  0.39341655     0.19800
H228        H  0.84552231  0.12890363  0.47013289     0.19800
C229        C  0.84574874  0.38800624  0.07554701    -0.06000
C230        C  0.87023412  0.40309984  0.10154494    -0.17100
C231        C  0.89769914  0.42406522  0.08867344     0.11200
C232        C  0.90115987  0.43007191  0.04880674    -0.05900
C233        C  0.87783553  0.41423260  0.02270842    -0.17200
C234        C  0.85079650  0.39295550  0.03548355     0.11200
S235        S  0.92734546  0.44241457  0.12453067    -0.32100
S236        S  0.82525456  0.37200798  0.99901455    -0.32100
H237        H  0.82720467  0.34466540  0.01915818     0.29200
H238        H  0.93227779  0.46934921  0.10415245     0.29200
H239        H  0.86710057  0.39932708  0.13227043     0.19800
H240        H  0.88144329  0.41802754  0.49206662     0.19800
C241        C  0.10458775  0.43366108  0.05006169    -0.06000
C242        C  0.10810253  0.43208904  0.09031780    -0.17100
C243        C  0.13782947  0.41511584  0.10782290     0.11200
C244        C  0.16399963  0.39834264  0.08468948    -0.05900
C245        C  0.16076137  0.40043870  0.04435417    -0.17200
C246        C  0.13140555  0.41769887  0.02686738     0.11200
S247        S  0.14222335  0.41738682  0.15947402    -0.32100
S248        S  0.12978639  0.41835122  0.47483314    -0.32100
H249        H  0.08918797  0.42305912  0.47146526     0.29200
H250        H  0.18347776  0.41775243  0.15945215     0.29200
H251        H  0.08814506  0.44488672  0.10819408     0.19800
H252        H  0.18067773  0.38788169  0.02616206     0.19800
C253        C  0.10036344  0.06713476  0.44476117    -0.06000
C254        C  0.11403040  0.06419499  0.40682931    -0.17100
C255        C  0.14358830  0.08282308  0.39254169     0.11200
C256        C  0.15997403  0.10488445  0.41670353    -0.05900
C257        C  0.14627501  0.10773700  0.45467825    -0.17200
C258        C  0.11617348  0.08954376  0.46867564     0.11200
S259        S  0.16034848  0.07634106  0.34399351    -0.32100
S260        S  0.09946817  0.09582885  0.01736692    -0.32100
H261        H  0.06062439  0.08650560  0.01152730     0.29200
H262        H  0.20006035  0.08222188  0.35171562     0.29200
H263        H  0.10201131  0.04691128  0.38850080     0.19800
H264        H  0.15852960  0.12473239  0.47332057     0.19800
N265        N  0.99941027  0.03791305  0.96628127    -0.36500
N266        N  0.93990995  0.49804284  0.49717060    -0.57000
N267        N  0.00196835  0.46028801  0.52946727    -0.36500
N268        N  0.06132696  0.49878066  0.49532468    -0.57000
C269        C  0.96694638  0.05075864  0.95097342     0.27100
C270        C  0.03089749  0.05106063  0.94969828     0.27100
C271        C  0.97054036  0.44217368  0.53368518     0.27100
C272        C  0.03440916  0.44311164  0.53407437     0.27100
C273        C  0.91618116  0.02074258  0.98587256     0.35700
C274        C  0.91753893  0.47884453  0.51769912     0.35700
C275        C  0.08386198  0.02157868  0.98256957     0.35700
C276        C  0.08508547  0.48065038  0.51614113     0.35700
C277        C  0.97802058  0.07252443  0.92456188    -0.21800
C278        C  0.01826376  0.07278510  0.92386966    -0.21800
C279        C  0.98319913  0.41322446  0.54127651    -0.21800
C280        C  0.02348275  0.41385196  0.54167077    -0.21800
C281        C  0.87832857  0.01569239  0.99885080    -0.22800
C282        C  0.87918209  0.48915800  0.51901110    -0.22800
C283        C  0.12231207  0.01743417  0.99451229    -0.22800
C284        C  0.12302092  0.49162822  0.51594271    -0.22800
C285        C  0.92770318  0.04509475  0.96223019    -0.18200
C286        C  0.07066178  0.04568913  0.95935035    -0.18200
C287        C  0.07363485  0.45328256  0.53317396    -0.18200
C288        C  0.93074898  0.45128871  0.53328983    -0.18200
H289        H  0.95915827  0.08730455  0.90811402     0.14700
H290        H  0.03610307  0.08780879  0.90683649     0.14700
H291        H  0.96525705  0.39367961  0.54633328     0.14700
H292        H  0.04258094  0.39489127  0.54690530     0.14700
H293        H  0.85268514  0.02951143  0.99397393     0.13000
H294        H  0.85433754  0.47855560  0.53276074     0.13000
H295        H  0.14733557  0.03148216  0.98839750     0.13000
H296        H  0.14867147  0.48191047  0.52948430     0.13000
H297        H  0.00009169  0.02366482  0.98970580     0.26300
H298        H  0.00130672  0.48347075  0.52819759     0.26300
O299        O  0.31726734  0.35936493  0.62514249    -0.57700
C300        C  0.25817689  0.29423817  0.56485843     0.74900
O301        O  0.21715846  0.30792870  0.68011607    -0.58800
C302        C  0.31251367  0.37473505  0.65544745     0.74900
C303        C  0.19399308  0.37772229  0.60086850     0.77300
Cd304      Cd  0.25222474  0.33552674  0.62819207     1.37500
O305        O  0.28728326  0.30990782  0.57492046    -0.57700
O306        O  0.22550567  0.37241908  0.58289788    -0.56500
C307        C  0.24719183  0.29409907  0.69236537     0.77300
O308        O  0.18918099  0.36361445  0.63228132    -0.58900
O309        O  0.22703808  0.29802942  0.58407474    -0.57300
O310        O  0.27960452  0.37248254  0.67195742    -0.57300
O311        O  0.27870890  0.29924561  0.67437645    -0.56500
O312        O  0.31180901  0.13303858  0.88779539    -0.57700
C313        C  0.25869911  0.20543892  0.94400183     0.74900
O314        O  0.21812958  0.19356473  0.82831293    -0.58800
C315        C  0.31110604  0.12286908  0.85374013     0.74900
C316        C  0.19119658  0.12522288  0.90354826     0.77300
Cd317      Cd  0.25261427  0.16513180  0.87996568     1.37500
O318        O  0.28913152  0.19327074  0.93000263    -0.57700
O319        O  0.22108625  0.12993485  0.92417671    -0.54100
C320        C  0.24835046  0.20801447  0.81808757     0.77300
O321        O  0.18937795  0.13903525  0.87162230    -0.58900
O322        O  0.22642889  0.19909372  0.92816386    -0.57300
O323        O  0.28370609  0.13220559  0.83227551    -0.57300
O324        O  0.27922648  0.20327619  0.83734315    -0.56500
N325        N  0.50309270  0.46476985  0.71349137    -0.36500
N326        N  0.56238762  0.00317607  0.74707794    -0.57000
N327        N  0.50116596  0.03882384  0.78254485    -0.36500
N328        N  0.44189523  0.99947122  0.75182018    -0.57000
C329        C  0.53569822  0.44802386  0.70774850     0.27100
C330        C  0.47186380  0.44650436  0.70933764     0.27100
C331        C  0.53327822  0.04974465  0.80037719     0.27100
C332        C  0.46956491  0.04767012  0.80318450     0.27100
C333        C  0.58506586  0.48699472  0.72287135     0.35700
C334        C  0.58387753  0.02705737  0.75792034     0.35700
C335        C  0.41950862  0.48240850  0.72851942     0.35700
C336        C  0.41843612  0.02158185  0.76520393     0.35700
C337        C  0.52500858  0.41882554  0.69948985    -0.21800
C338        C  0.48471567  0.41786972  0.70047310    -0.21800
C339        C  0.52198416  0.06552872  0.83293506    -0.21800
C340        C  0.48173055  0.06446427  0.83448995    -0.21800
C341        C  0.62118874  0.50060885  0.71827722    -0.22800
C342        C  0.62037841  0.02611105  0.74034584    -0.22800
C343        C  0.38154104  0.49357482  0.72736841    -0.22800
C344        C  0.38082279  0.01831641  0.75077145    -0.22800
C345        C  0.57469542  0.45877190  0.70778586    -0.18200
C346        C  0.43208779  0.45550360  0.71095692    -0.18200
C347        C  0.43011081  0.04358296  0.79204095    -0.18200
C348        C  0.57201796  0.04819779  0.78593669    -0.18200
H349        H  0.54421050  0.40016056  0.69313595     0.14700
H350        H  0.46691289  0.39834897  0.69497513     0.14700
H351        H  0.54071385  0.07736950  0.85287420     0.14700
H352        H  0.46354202  0.07538211  0.85581131     0.14700
H353        H  0.64570444  0.49274124  0.70124299     0.13000
H354        H  0.64419900  0.04182114  0.74365400     0.13000
H355        H  0.35680401  0.48459438  0.71171954     0.13000
H356        H  0.35543296  0.03211826  0.75675013     0.13000
H357        H  0.50197326  0.48791419  0.71589627     0.26300
H358        H  0.50054003  0.02962964  0.75506484     0.26300
O359        O  0.81569594  0.35732629  0.62436963    -0.57700
C360        C  0.75769422  0.29051837  0.68183994     0.74900
O361        O  0.68556984  0.35962513  0.62084381    -0.58800
C362        C  0.81373373  0.36923952  0.59124438     0.74900
C363        C  0.73793231  0.29289382  0.55934676     0.77300
Cd364      Cd  0.74995353  0.33411345  0.62155056     1.37500
O365        O  0.78662513  0.30647601  0.67178233    -0.57700
O366        O  0.76340018  0.28862217  0.58525417    -0.56500
C367        C  0.69246303  0.37691238  0.64883511     0.77300
O368        O  0.71691128  0.31617201  0.56247327    -0.58900
O369        O  0.72528025  0.29619072  0.66560812    -0.57300
O370        O  0.78228630  0.36511337  0.57283543    -0.57300
O371        O  0.72553819  0.37386034  0.66490432    -0.56500
O372        O  0.68118352  0.15144709  0.86691639    -0.57700
C373        C  0.73727989  0.20815853  0.93483399     0.74900
O374        O  0.81086779  0.13589734  0.86588410    -0.58800
C375        C  0.68888619  0.12664183  0.85099304     0.74900
C376        C  0.76168289  0.20426102  0.80612292     0.77300
Cd377      Cd  0.75056218  0.16666060  0.87312485     1.37500
O378        O  0.71939608  0.18340585  0.93383553    -0.57700
O379        O  0.78922704  0.19961168  0.82986726    -0.56500
C380        C  0.81185787  0.12738913  0.90074376     0.77300
O381        O  0.72999960  0.19060253  0.81282853    -0.58900
O382        O  0.75956358  0.21403574  0.90673683    -0.57300
O383        O  0.72471183  0.12044167  0.84599340    -0.57300
O384        O  0.78579534  0.13805946  0.92266073    -0.56500
C385        C  0.76139099  0.26664441  0.71123489    -0.06000
C386        C  0.78842284  0.27024644  0.74134108    -0.17100
C387        C  0.79083792  0.24955029  0.77166181     0.11200
C388        C  0.76513027  0.22474929  0.77252663    -0.05900
C389        C  0.73923639  0.22061044  0.74150706    -0.17200
C390        C  0.73760908  0.24079440  0.71071338     0.11200
S391        S  0.82517459  0.25743578  0.80963207    -0.32100
S392        S  0.70531176  0.23167744  0.67129573    -0.32100
H393        H  0.73129129  0.24142177  0.64238446     0.29200
H394        H  0.84555270  0.23031624  0.80455101     0.29200
H395        H  0.80710534  0.28979913  0.74187362     0.19800
H396        H  0.71998610  0.20137556  0.74115251     0.19800
C397        C  0.73350994  0.22909498  0.96730831    -0.06000
C398        C  0.72863255  0.25962879  0.95915873    -0.17100
C399        C  0.72860298  0.28094859  0.98860197     0.11200
C400        C  0.73375646  0.27158797  0.52724032    -0.05900
C401        C  0.73767885  0.24095597  0.53540527    -0.17200
C402        C  0.73759717  0.21965920  0.50598489     0.11200
S403        S  0.72443979  0.31966536  0.97457224    -0.32100
S404        S  0.74529648  0.18114701  0.51962925    -0.32100
H405        H  0.77133746  0.17469815  0.98920311     0.29200
H406        H  0.75372624  0.32971267  0.49996346     0.29200
H407        H  0.72576622  0.26700147  0.92948357     0.19800
H408        H  0.74178871  0.23358378  0.56494016     0.19800
C409        C  0.60622649  0.43873959  0.69282517    -0.06000
C410        C  0.60750551  0.43249095  0.65321182    -0.17100
C411        C  0.63590426  0.41318890  0.63784388     0.11200
C412        C  0.66339362  0.39917844  0.66264722    -0.05900
C413        C  0.66261347  0.40605515  0.70211783    -0.17200
C414        C  0.63422158  0.42529133  0.71746978     0.11200
S415        S  0.63655109  0.40849328  0.58625248    -0.32100
S416        S  0.63461914  0.43101138  0.76890168    -0.32100
H417        H  0.59370120  0.43295089  0.77303571     0.29200
H418        H  0.67769238  0.40915949  0.58321702     0.29200
H419        H  0.58636653  0.44296701  0.63409722     0.19800
H420        H  0.68348109  0.39554084  0.72147947     0.19800
C421        C  0.60180429  0.06888785  0.80232373    -0.06000
C422        C  0.63273664  0.05668939  0.82395361    -0.17100
C423        C  0.66069552  0.07499474  0.84141968     0.11200
C424        C  0.65780574  0.10639157  0.83740047    -0.05900
C425        C  0.62620621  0.11867941  0.81678450    -0.17200
C426        C  0.59868074  0.10033543  0.79860304     0.11200
S427        S  0.69841265  0.05688549  0.86957241    -0.32100
S428        S  0.56099734  0.11841133  0.77027862    -0.32100
H429        H  0.55583498  0.09494825  0.74389945     0.29200
H430        H  0.70160346  0.07978524  0.89709777     0.29200
H431        H  0.63480219  0.03265487  0.82762302     0.19800
H432        H  0.62397747  0.14272388  0.81326138     0.19800
C433        C  0.34112023  0.10186797  0.83897577    -0.06000
C434        C  0.35653184  0.10717141  0.80207256    -0.17100
C435        C  0.38635383  0.08917695  0.78691125     0.11200
C436        C  0.39996555  0.06423087  0.80812998    -0.05900
C437        C  0.38427540  0.05858161  0.84485636    -0.17200
C438        C  0.35523250  0.07720448  0.86058603     0.11200
S439        S  0.40578291  0.09918516  0.74026993    -0.32100
S440        S  0.33639711  0.06766570  0.90757918    -0.32100
H441        H  0.29735516  0.07560755  0.89925449     0.29200
H442        H  0.44436196  0.08955310  0.74742031     0.29200
H443        H  0.34611504  0.12611861  0.78535228     0.19800
H444        H  0.39457353  0.03941917  0.86121363     0.19800
C445        C  0.40175711  0.43479443  0.69577435    -0.06000
C446        C  0.37618181  0.42129356  0.72220089    -0.17100
C447        C  0.34708674  0.40138797  0.71007542     0.11200
C448        C  0.34357076  0.39461986  0.67038517    -0.05900
C449        C  0.36998595  0.40747467  0.64410337    -0.17200
C450        C  0.39864678  0.42770193  0.65620883     0.11200
S451        S  0.31650557  0.38363396  0.74603365    -0.32100
S452        S  0.43000491  0.44369098  0.61966944    -0.32100
H453        H  0.43850326  0.47037697  0.63918595     0.29200
H454        H  0.32733007  0.40194477  0.77715877     0.29200
H455        H  0.37944938  0.42624028  0.75257332     0.19800
H456        H  0.36763086  0.40235994  0.61366850     0.19800
C457        C  0.24636081  0.27264617  0.72536535    -0.06000
C458        C  0.27948028  0.25437225  0.73139987    -0.17100
C459        C  0.28060251  0.23291970  0.76078957     0.11200
C460        C  0.24789683  0.22934076  0.78538027    -0.05900
C461        C  0.21472814  0.24742407  0.77953611    -0.17200
C462        C  0.21391614  0.26938381  0.75056488     0.11200
S463        S  0.32418257  0.21006753  0.76424698    -0.32100
S464        S  0.17158061  0.29348133  0.74903386    -0.32100
H465        H  0.19395106  0.31987139  0.74762147     0.29200
H466        H  0.30390837  0.18329614  0.77164121     0.29200
H467        H  0.30471864  0.25635647  0.71260667     0.19800
H468        H  0.18981177  0.24528422  0.79872784     0.19800
C469        C  0.25989590  0.27182306  0.53338851    -0.06000
C470        C  0.23086505  0.24958129  0.53286389    -0.17100
C471        C  0.23090696  0.22697033  0.50523152     0.11200
C472        C  0.26036102  0.22648651  0.97663251    -0.05900
C473        C  0.28992975  0.24822748  0.97735673    -0.17200
C474        C  0.28969939  0.27113527  0.00489622     0.11200
S475        S  0.19319671  0.19887083  0.50890125    -0.32100
S476        S  0.32675183  0.29955577  0.00046779    -0.32100
H477        H  0.29998129  0.32344479  0.50463751     0.29200
H478        H  0.21719380  0.17499738  0.99688654     0.29200
H479        H  0.20813969  0.24936228  0.55469441     0.19800
H480        H  0.31228158  0.24824890  0.95514419     0.19800
C481        C  0.89704342  0.06597421  0.94753244    -0.06000
C482        C  0.88248331  0.06163872  0.91013068    -0.17100
C483        C  0.85496816  0.08132116  0.89396346     0.11200
C484        C  0.84147854  0.10604198  0.91563535    -0.05900
C485        C  0.85572964  0.11009745  0.95326271    -0.17200
C486        C  0.88376839  0.09073659  0.96917267     0.11200
S487        S  0.83708525  0.07287489  0.84632484    -0.32100
S488        S  0.90120209  0.09902037  0.51706141    -0.32100
H489        H  0.93773198  0.08465401  0.51433544     0.29200
H490        H  0.79766479  0.07945526  0.85485834     0.29200
H491        H  0.89271746  0.04271566  0.89342368     0.19800
H492        H  0.84552403  0.12892315  0.97018203     0.19800
C493        C  0.84572938  0.38801753  0.57557092    -0.06000
C494        C  0.87019763  0.40312311  0.60157826    -0.17100
C495        C  0.89767291  0.42408515  0.58870861     0.11200
C496        C  0.90115253  0.43007744  0.54884122    -0.05900
C497        C  0.87783526  0.41423627  0.52274033    -0.17200
C498        C  0.85079488  0.39295995  0.53550942     0.11200
S499        S  0.92729371  0.44246976  0.62455751    -0.32100
S500        S  0.82527027  0.37200722  0.49903226    -0.32100
H501        H  0.82714769  0.34467288  0.51920025     0.29200
H502        H  0.93212807  0.46941690  0.60417994     0.29200
H503        H  0.86704012  0.39936359  0.63230411     0.19800
H504        H  0.88143590  0.41802611  0.99203415     0.19800
C505        C  0.10458610  0.43363702  0.55000567    -0.06000
C506        C  0.10808487  0.43207269  0.59026341    -0.17100
C507        C  0.13783285  0.41513074  0.60778119     0.11200
C508        C  0.16404224  0.39838595  0.58465693    -0.05900
C509        C  0.16082655  0.40048332  0.54431970    -0.17200
C510        C  0.13143525  0.41769912  0.52682299     0.11200
S511        S  0.14218437  0.41738633  0.65943808    -0.32100
S512        S  0.12979476  0.41838699  0.97487496    -0.32100
H513        H  0.08925076  0.42332721  0.97144267     0.29200
H514        H  0.18343860  0.41777695  0.65944791     0.29200
H515        H  0.08809481  0.44484900  0.60813007     0.19800
H516        H  0.18076835  0.38794353  0.52613495     0.19800
C517        C  0.10038513  0.06714293  0.94479505    -0.06000
C518        C  0.11410176  0.06414774  0.90688539    -0.17100
C519        C  0.14366131  0.08276640  0.89257649     0.11200
C520        C  0.16000052  0.10487468  0.91669719    -0.05900
C521        C  0.14625773  0.10777957  0.95465018    -0.17200
C522        C  0.11615799  0.08959404  0.96867165     0.11200
S523        S  0.16048579  0.07620625  0.84406430    -0.32100
S524        S  0.09947843  0.09571962  0.51737352    -0.32100
H525        H  0.06049905  0.08682698  0.51126053     0.29200
H526        H  0.20017392  0.08218454  0.85177516     0.29200
H527        H  0.10212199  0.04682557  0.88859249     0.19800
H528        H  0.15849045  0.12480342  0.97326349     0.19800
N529        N  0.99939080  0.53786266  0.46617064    -0.36500
N530        N  0.93992444  0.99806899  0.99721494    -0.57000
N531        N  0.00196834  0.96029729  0.02947595    -0.36500
N532        N  0.06133216  0.99881238  0.99539625    -0.57000
C533        C  0.96692534  0.55074793  0.45091843     0.27100
C534        C  0.03087928  0.55105740  0.44965342     0.27100
C535        C  0.97054401  0.94217341  0.03364703     0.27100
C536        C  0.03441237  0.94312833  0.03409901     0.27100
C537        C  0.91616279  0.52070599  0.48580173     0.35700
C538        C  0.91754579  0.97885306  0.01770911     0.35700
C539        C  0.08385439  0.52154463  0.48248736     0.35700
C540        C  0.08508240  0.98068999  0.01623446     0.35700
C541        C  0.97799934  0.57258015  0.42459897    -0.21800
C542        C  0.01824372  0.57284372  0.42391100    -0.21800
C543        C  0.98320729  0.91322134  0.04121103    -0.21800
C544        C  0.02349047  0.91386080  0.04165421    -0.21800
C545        C  0.87831443  0.51566760  0.49880067    -0.22800
C546        C  0.87918890  0.98916512  0.01902428    -0.22800
C547        C  0.12231354  0.51738639  0.49439773    -0.22800
C548        C  0.12301260  0.99167841  0.01606411    -0.22800
C549        C  0.92768151  0.54505647  0.46215435    -0.18200
C550        C  0.07064372  0.54567480  0.45930351    -0.18200
C551        C  0.07363547  0.95331059  0.03324105    -0.18200
C552        C  0.93075186  0.95128410  0.03326208    -0.18200
H553        H  0.95913528  0.58740507  0.40821911     0.14700
H554        H  0.03608172  0.58791669  0.40694917     0.14700
H555        H  0.96526773  0.89366932  0.04623044     0.14700
H556        H  0.04259123  0.89490289  0.04689488     0.14700
H557        H  0.85267110  0.52948713  0.49392381     0.13000
H558        H  0.85433872  0.97854803  0.03274527     0.13000
H559        H  0.14733906  0.53142892  0.48827076     0.13000
H560        H  0.14865645  0.98196559  0.02962351     0.13000
H561        H  0.00007403  0.52354461  0.48951203     0.26300
H562        H  0.00130013  0.98348392  0.02822638     0.26300
O563        O  0.31731645  0.85936077  0.12512306    -0.57700
C564        C  0.25822923  0.79423574  0.06487025     0.74900
O565        O  0.21718737  0.80790346  0.18007791    -0.58800
C566        C  0.31258246  0.87468419  0.15547281     0.74900
C567        C  0.19398380  0.87769251  0.10088576     0.77300
Cd568      Cd  0.25226632  0.83552048  0.12818712     1.37500
O569        O  0.28734110  0.80989796  0.07493698    -0.57700
O570        O  0.22550035  0.87241211  0.08290980    -0.56500
C571        C  0.24723485  0.79410917  0.19236024     0.77300
O572        O  0.18919892  0.86358290  0.13230109    -0.58900
O573        O  0.22708871  0.79803450  0.08408006    -0.57300
O574        O  0.27968840  0.87240115  0.17200057    -0.57300
O575        O  0.27875551  0.79927409  0.17438920    -0.56500
O576        O  0.31173058  0.63300592  0.38783419    -0.57700
C577        C  0.25867114  0.70544354  0.44399873     0.74900
O578        O  0.21819228  0.69356228  0.32827370    -0.58800
C579        C  0.31105209  0.62285312  0.35376977     0.74900
C580        C  0.19116441  0.62524553  0.40356785     0.77300
Cd581      Cd  0.25259510  0.66514076  0.37996944     1.37500
O582        O  0.28910781  0.69329278  0.42998549    -0.57700
O583        O  0.22108949  0.62991518  0.42416263    -0.54100
C584        C  0.24841868  0.70801475  0.31807086     0.77300
O585        O  0.18930897  0.63910173  0.37167450    -0.58900
O586        O  0.22639811  0.69908442  0.42817615    -0.57300
O587        O  0.28368374  0.63221686  0.33228407    -0.57300
O588        O  0.27928648  0.70326633  0.33733767    -0.56500
N589        N  0.50308630  0.96478194  0.21347992    -0.36500
N590        N  0.56236623  0.50315848  0.24712393    -0.57000
N591        N  0.50112381  0.53880778  0.28258942    -0.36500
N592        N  0.44187410  0.49947966  0.25180988    -0.57000
C593        C  0.53568916  0.94803229  0.20774980     0.27100
C594        C  0.47185919  0.94651692  0.20933879     0.27100
C595        C  0.53323055  0.54972602  0.30042615     0.27100
C596        C  0.46951904  0.54765284  0.30322188     0.27100
C597        C  0.58505449  0.98698903  0.22290719     0.35700
C598        C  0.58383873  0.52704995  0.25796083     0.35700
C599        C  0.41949954  0.98241790  0.22849876     0.35700
C600        C  0.41840931  0.52158507  0.26519832     0.35700
C601        C  0.52499714  0.91883271  0.19950451    -0.21800
C602        C  0.48470744  0.91787780  0.20049433    -0.21800
C603        C  0.52193072  0.56550833  0.33298605    -0.21800
C604        C  0.48167661  0.56444411  0.33453276    -0.21800
C605        C  0.62116785  0.00061563  0.21830879    -0.22800
C606        C  0.62033820  0.52611808  0.24037824    -0.22800
C607        C  0.38153260  0.99358239  0.22733653    -0.22800
C608        C  0.38080175  0.51832086  0.25075186    -0.22800
C609        C  0.57469046  0.95876987  0.20780566    -0.18200
C610        C  0.43208639  0.95551154  0.21094800    -0.18200
C611        C  0.43006881  0.54356771  0.29206899    -0.18200
C612        C  0.57196509  0.54819037  0.28597432    -0.18200
H613        H  0.54419656  0.90016395  0.19316576     0.14700
H614        H  0.46690429  0.89835404  0.19501528     0.14700
H615        H  0.54065503  0.57735136  0.35292791     0.14700
H616        H  0.46348160  0.57536221  0.35584877     0.14700
H617        H  0.64568204  0.99276031  0.20126291     0.13000
H618        H  0.64414660  0.54184039  0.24367661     0.13000
H619        H  0.35680081  0.98459788  0.21168364     0.13000
H620        H  0.35540840  0.53211760  0.25673445     0.13000
H621        H  0.50196722  0.98793457  0.21587509     0.26300
H622        H  0.50050885  0.52961786  0.25510255     0.26300
O623        O  0.81570187  0.85736605  0.12440009    -0.57700
C624        C  0.75775087  0.79048302  0.18178949     0.74900
O625        O  0.68561192  0.85964063  0.12085765    -0.58800
C626        C  0.81375612  0.86923166  0.09124484     0.74900
C627        C  0.73793434  0.79292593  0.05935693     0.77300
Cd628      Cd  0.74997994  0.83412253  0.12157009     1.37500
O629        O  0.78667077  0.80646226  0.17175967    -0.57700
O630        O  0.76343800  0.78866977  0.08523394    -0.56500
C631        C  0.69248960  0.87691500  0.14886514     0.77300
O632        O  0.71688174  0.81618571  0.06251394    -0.58900
O633        O  0.72533401  0.79615470  0.16556386    -0.57300
O634        O  0.78232376  0.86507115  0.07282598    -0.57300
O635        O  0.72555492  0.87385225  0.16495305    -0.56500
O636        O  0.68113381  0.65144713  0.36688652    -0.57700
C637        C  0.73727039  0.70813069  0.43480755     0.74900
O638        O  0.81075397  0.63579734  0.36585718    -0.58800
C639        C  0.68882941  0.62663300  0.35098279     0.74900
C640        C  0.76166011  0.70422437  0.30606677     0.77300
Cd641      Cd  0.75052091  0.66663192  0.37309057     1.37500
O642        O  0.71940011  0.68337174  0.43382155    -0.57700
O643        O  0.78918703  0.69958368  0.32983296    -0.56500
C644        C  0.81178562  0.62733576  0.40073373     0.77300
O645        O  0.72998003  0.69055473  0.31275095    -0.58900
O646        O  0.75952356  0.71401589  0.40668815    -0.57300
O647        O  0.72465178  0.62041734  0.34599700    -0.57300
O648        O  0.78578095  0.63806824  0.42266768    -0.56500
C649        C  0.76145556  0.76659474  0.21116013    -0.06000
C650        C  0.78848361  0.77018747  0.24127082    -0.17100
C651        C  0.79085848  0.74950226  0.27160658     0.11200
C652        C  0.76512726  0.72471398  0.27247054    -0.05900
C653        C  0.73924133  0.72058338  0.24144210    -0.17200
C654        C  0.73764927  0.74075860  0.21063801     0.11200
S655        S  0.82515526  0.75739940  0.30960778    -0.32100
S656        S  0.70535330  0.73165400  0.17121325    -0.32100
H657        H  0.73135275  0.74137858  0.14230804     0.29200
H658        H  0.84553647  0.73027745  0.30456350     0.29200
H659        H  0.80718043  0.78973240  0.24180543     0.19800
H660        H  0.71996838  0.70136207  0.24108862     0.19800
C661        C  0.73350678  0.72906994  0.46728612    -0.06000
C662        C  0.72869301  0.75961050  0.45913803    -0.17100
C663        C  0.72865648  0.78092684  0.48858671     0.11200
C664        C  0.73375548  0.77161753  0.02725529    -0.05900
C665        C  0.73774548  0.74098977  0.03542086    -0.17200
C666        C  0.73767239  0.71969045  0.00600455     0.11200
S667        S  0.72457319  0.81964993  0.47456268    -0.32100
S668        S  0.74547447  0.68118631  0.01963844    -0.32100
H669        H  0.77125844  0.67466222  0.48928516     0.29200
H670        H  0.75360976  0.82975742  0.99994119     0.29200
H671        H  0.72587899  0.76699084  0.42946128     0.19800
H672        H  0.74190482  0.73362404  0.06495168     0.19800
C673        C  0.60622555  0.93873297  0.19285012    -0.06000
C674        C  0.60751586  0.93248761  0.15323704    -0.17100
C675        C  0.63592104  0.91318972  0.13787006     0.11200
C676        C  0.66341008  0.89917695  0.16267464    -0.05900
C677        C  0.66261834  0.90604898  0.20214616    -0.17200
C678        C  0.63421588  0.92527911  0.21749601     0.11200
S679        S  0.63658458  0.90852145  0.08627527    -0.32100
S680        S  0.63458079  0.93097449  0.26893017    -0.32100
H681        H  0.59365678  0.93287785  0.27303463     0.29200
H682        H  0.67772593  0.90920135  0.08325440     0.29200
H683        H  0.58638395  0.94296838  0.13411946     0.19800
H684        H  0.68348350  0.89553438  0.22151038     0.19800
C685        C  0.60173780  0.56888807  0.30234990    -0.06000
C686        C  0.63268227  0.55668846  0.32395791    -0.17100
C687        C  0.66064485  0.57499129  0.34141210     0.11200
C688        C  0.65774708  0.60638720  0.33739950    -0.05900
C689        C  0.62613585  0.61867801  0.31680453    -0.17200
C690        C  0.59860082  0.60033633  0.29863728     0.11200
S691        S  0.69836905  0.55687751  0.36955117    -0.32100
S692        S  0.56089755  0.61842216  0.27034489    -0.32100
H693        H  0.55559554  0.59493229  0.24403480     0.29200
H694        H  0.70159498  0.57978092  0.39706708     0.29200
H695        H  0.63475362  0.53265347  0.32762064     0.19800
H696        H  0.62390285  0.64272301  0.31328953     0.19800
C697        C  0.34106952  0.60184819  0.33901363    -0.06000
C698        C  0.35651641  0.60716830  0.30212593    -0.17100
C699        C  0.38633372  0.58916803  0.28696325     0.11200
C700        C  0.39991970  0.56420975  0.30816847    -0.05900
C701        C  0.38420600  0.55854769  0.34488417    -0.17200
C702        C  0.35514995  0.57716414  0.36060957     0.11200
S703        S  0.40577976  0.59916173  0.24032145    -0.32100
S704        S  0.33623495  0.56757288  0.40755741    -0.32100
H705        H  0.29720421  0.57550814  0.39917056     0.29200
H706        H  0.44437643  0.58959192  0.24752691     0.29200
H707        H  0.34612139  0.62612640  0.28541347     0.19800
H708        H  0.39448443  0.53937288  0.36122890     0.19800
C709        C  0.40177817  0.93477906  0.19578544    -0.06000
C710        C  0.37623656  0.92126862  0.22222750    -0.17100
C711        C  0.34718190  0.90131312  0.21013246     0.11200
C712        C  0.34363301  0.89456796  0.17042763    -0.05900
C713        C  0.37005554  0.90740745  0.14414075    -0.17200
C714        C  0.39868661  0.92765871  0.15623107     0.11200
S715        S  0.31651921  0.88359826  0.24608214    -0.32100
S716        S  0.42996676  0.94371271  0.11967964    -0.32100
H717        H  0.43825466  0.97045397  0.13916207     0.29200
H718        H  0.33121955  0.89892116  0.27833376     0.29200
H719        H  0.37943993  0.92633694  0.25256810     0.19800
H720        H  0.36770776  0.90228305  0.11370758     0.19800
C721        C  0.24642064  0.77267474  0.22537783    -0.06000
C722        C  0.27956120  0.75442850  0.23143726    -0.17100
C723        C  0.28068315  0.73296473  0.26081253     0.11200
C724        C  0.24796981  0.72936407  0.28538583    -0.05900
C725        C  0.21479588  0.74744761  0.27954657    -0.17200
C726        C  0.21397208  0.76940271  0.25056640     0.11200
S727        S  0.32426967  0.71012056  0.26426882    -0.32100
S728        S  0.17161013  0.79347382  0.24898112    -0.32100
H729        H  0.19394867  0.81987937  0.24752879     0.29200
H730        H  0.30399898  0.68333872  0.27161077     0.29200
H731        H  0.30481041  0.75643294  0.21266203     0.19800
H732        H  0.18987775  0.74530058  0.29873469     0.19800
C733        C  0.25994043  0.77182037  0.03339977    -0.06000
C734        C  0.23089291  0.74959104  0.03286341    -0.17100
C735        C  0.23093172  0.72697795  0.00523152     0.11200
C736        C  0.26033180  0.72648887  0.47662570    -0.05900
C737        C  0.28989555  0.74823452  0.47734490    -0.17200
C738        C  0.28964891  0.77115066  0.50487187     0.11200
S739        S  0.19321232  0.69888684  0.00889444    -0.32100
S740        S  0.32666937  0.79959466  0.50042266    -0.32100
H741        H  0.30009134  0.82342305  0.00467400     0.29200
H742        H  0.21715975  0.67499046  0.49685480     0.29200
H743        H  0.20815904  0.74938151  0.05468582     0.19800
H744        H  0.31224949  0.74825620  0.45513400     0.19800
C745        C  0.89701364  0.56593716  0.44748681    -0.06000
C746        C  0.88239445  0.56157232  0.41011467    -0.17100
C747        C  0.85484943  0.58123745  0.39396643     0.11200
C748        C  0.84139894  0.60597978  0.41562245    -0.05900
C749        C  0.85570737  0.61006309  0.45322272    -0.17200
C750        C  0.88376929  0.59071516  0.46912150     0.11200
S751        S  0.83686664  0.57272754  0.34638458    -0.32100
S752        S  0.90116769  0.59897101  0.01713014    -0.32100
H753        H  0.93812816  0.58532492  0.01385996     0.29200
H754        H  0.79746521  0.57931012  0.35499753     0.29200
H755        H  0.89259705  0.54263316  0.39341902     0.19800
H756        H  0.84552708  0.62890273  0.47013102     0.19800
C757        C  0.84574977  0.88800094  0.07555151    -0.06000
C758        C  0.87022993  0.90309853  0.10155054    -0.17100
C759        C  0.89769432  0.92406463  0.08867942     0.11200
C760        C  0.90116014  0.93006744  0.04881228    -0.05900
C761        C  0.87784111  0.91422428  0.02271342    -0.17200
C762        C  0.85080286  0.89294655  0.03548811     0.11200
S763        S  0.92733216  0.94242106  0.12453713    -0.32100
S764        S  0.82526694  0.87199498  0.99901886    -0.32100
H765        H  0.82720907  0.84465484  0.01916866     0.29200
H766        H  0.93225391  0.96935600  0.10415687     0.29200
H767        H  0.86709196  0.89932887  0.13227622     0.19800
H768        H  0.88143852  0.91803198  0.49206556     0.19800
C769        C  0.10458836  0.93365393  0.05005567    -0.06000
C770        C  0.10810123  0.93208132  0.09031176    -0.17100
C771        C  0.13783183  0.91511242  0.10781759     0.11200
C772        C  0.16400840  0.89834435  0.08468475    -0.05900
C773        C  0.16077315  0.90044245  0.04434929    -0.17200
C774        C  0.13141178  0.91769689  0.02686218     0.11200
S775        S  0.14222255  0.91738392  0.15946885    -0.32100
S776        S  0.12978109  0.91834933  0.47483994    -0.32100
H777        H  0.08918903  0.92308567  0.47146597     0.29200
H778        H  0.18347681  0.91775596  0.15944805     0.29200
H779        H  0.08813969  0.94487577  0.10818749     0.19800
H780        H  0.18069426  0.88788973  0.02615730     0.19800
C781        C  0.10036626  0.56713698  0.44476799    -0.06000
C782        C  0.11402026  0.56420684  0.40683042    -0.17100
C783        C  0.14357714  0.58283559  0.39254241     0.11200
C784        C  0.15997691  0.60488691  0.41670999    -0.05900
C785        C  0.14629179  0.60772948  0.45469104    -0.17200
C786        C  0.11618902  0.58953705  0.46868819     0.11200
S787        S  0.16031810  0.57636754  0.34398485    -0.32100
S788        S  0.09945412  0.59584440  0.01735615    -0.32100
H789        H  0.06062925  0.58646565  0.01154738     0.29200
H790        H  0.20003523  0.58223448  0.35169911     0.29200
H791        H  0.10199086  0.54693054  0.38849690     0.19800
H792        H  0.15855640  0.62471762  0.47333796     0.19800
N793        N  0.99941245  0.53791864  0.96628275    -0.36500
N794        N  0.93991013  0.99804518  0.49717030    -0.57000
N795        N  0.00196910  0.96029026  0.52946697    -0.36500
N796        N  0.06132649  0.99878286  0.49532748    -0.57000
C797        C  0.96694909  0.55075681  0.95096384     0.27100
C798        C  0.03089969  0.55105890  0.94969027     0.27100
C799        C  0.97054186  0.94217466  0.53368197     0.27100
C800        C  0.03441043  0.94311508  0.53407865     0.27100
C801        C  0.91618422  0.52075057  0.98587493     0.35700
C802        C  0.91754018  0.97884628  0.51769903     0.35700
C803        C  0.08386268  0.52158414  0.98257215     0.35700
C804        C  0.08508474  0.98065585  0.51614899     0.35700
C805        C  0.97802360  0.57251061  0.92453585    -0.21800
C806        C  0.01826674  0.57277209  0.92384553    -0.21800
C807        C  0.98320158  0.91322609  0.54127538    -0.21800
C808        C  0.02348514  0.91385523  0.54167506    -0.21800
C809        C  0.87833232  0.51570263  0.99885692    -0.22800
C810        C  0.87918404  0.98916095  0.51901587    -0.22800
C811        C  0.12231215  0.51744133  0.99451779    -0.22800
C812        C  0.12301933  0.99163541  0.51595206    -0.22800
C813        C  0.92770653  0.54509950  0.96222724    -0.18200
C814        C  0.07066327  0.54569074  0.95934652    -0.18200
C815        C  0.07363510  0.95328809  0.53318222    -0.18200
C816        C  0.93075046  0.95128939  0.53328650    -0.18200
H817        H  0.95916164  0.58728261  0.90807556     0.14700
H818        H  0.03610650  0.58778806  0.90680143     0.14700
H819        H  0.96526013  0.89368086  0.54633184     0.14700
H820        H  0.04258389  0.89489555  0.54691376     0.14700
H821        H  0.85268984  0.52952327  0.99398266     0.13000
H822        H  0.85434023  0.97855829  0.53276650     0.13000
H823        H  0.14733570  0.53148901  0.98840179     0.13000
H824        H  0.14866941  0.98191979  0.52949710     0.13000
H825        H  0.00009328  0.52368373  0.98972159     0.26300
H826        H  0.00130619  0.98347210  0.52819856     0.26300
O827        O  0.31726036  0.85936673  0.62514551    -0.57700
C828        C  0.25817587  0.79424008  0.56485718     0.74900
O829        O  0.21715246  0.80792878  0.68011529    -0.58800
C830        C  0.31251028  0.87473417  0.65545304     0.74900
C831        C  0.19398601  0.87772112  0.60087464     0.77300
Cd832      Cd  0.25221997  0.83552735  0.62819425     1.37500
O833        O  0.28728202  0.80990854  0.57492257    -0.57700
O834        O  0.22549918  0.87242003  0.58290406    -0.56500
C835        C  0.24718711  0.79410198  0.69236677     0.77300
O836        O  0.18917420  0.86361201  0.63228650    -0.58900
O837        O  0.22703598  0.79803128  0.58407171    -0.57300
O838        O  0.27960235  0.87248060  0.67196545    -0.57300
O839        O  0.27870487  0.79925041  0.67438007    -0.56500
O840        O  0.31181023  0.63304284  0.88779514    -0.57700
C841        C  0.25869528  0.70543695  0.94399896     0.74900
O842        O  0.21812407  0.69355919  0.82830211    -0.58800
C843        C  0.31110623  0.62286879  0.85374231     0.74900
C844        C  0.19119375  0.62522453  0.90354350     0.77300
Cd845      Cd  0.25261070  0.66513156  0.87996148     1.37500
O846        O  0.28912691  0.69326530  0.93000333    -0.57700
O847        O  0.22108343  0.62993546  0.92417225    -0.54100
C848        C  0.24834302  0.70801328  0.81808175     0.77300
O849        O  0.18937475  0.63903736  0.87161809    -0.58900
O850        O  0.22642553  0.69909549  0.92815741    -0.57300
O851        O  0.28370440  0.63220121  0.83227713    -0.57300
O852        O  0.27921721  0.70327898  0.83734163    -0.56500
N853        N  0.50309358  0.96476895  0.71348910    -0.36500
N854        N  0.56238659  0.50317718  0.74707922    -0.57000
N855        N  0.50116366  0.53882457  0.78254776    -0.36500
N856        N  0.44189371  0.49947031  0.75182306    -0.57000
C857        C  0.53569904  0.94802207  0.70774942     0.27100
C858        C  0.47186448  0.94650307  0.70933798     0.27100
C859        C  0.53327598  0.54974378  0.80038105     0.27100
C860        C  0.46956317  0.54766688  0.80319064     0.27100
C861        C  0.58506624  0.98699365  0.72286955     0.35700
C862        C  0.58387536  0.52705918  0.75792118     0.35700
C863        C  0.41951055  0.98240954  0.72851606     0.35700
C864        C  0.41843429  0.52157981  0.76520923     0.35700
C865        C  0.52500956  0.91882292  0.69949558    -0.21800
C866        C  0.48471637  0.91786754  0.70047794    -0.21800
C867        C  0.52198250  0.56552302  0.83294334    -0.21800
C868        C  0.48172894  0.56445683  0.83449984    -0.21800
C869        C  0.62118944  0.00060726  0.71827562    -0.22800
C870        C  0.62037653  0.52611317  0.74034672    -0.22800
C871        C  0.38154377  0.99357719  0.72736214    -0.22800
C872        C  0.38082025  0.51831354  0.75077884    -0.22800
C873        C  0.57469574  0.95877070  0.70778471    -0.18200
C874        C  0.43208843  0.95550304  0.71095700    -0.18200
C875        C  0.43010920  0.54357986  0.79204766    -0.18200
C876        C  0.57201493  0.54819927  0.78593810    -0.18200
H877        H  0.54421169  0.90015724  0.69314528     0.14700
H878        H  0.46691342  0.89834639  0.69498280     0.14700
H879        H  0.54071244  0.57736103  0.85288500     0.14700
H880        H  0.46354050  0.57537017  0.85582515     0.14700
H881        H  0.64570487  0.99273945  0.70124127     0.13000
H882        H  0.64419669  0.54182368  0.74365474     0.13000
H883        H  0.35680724  0.98459722  0.71171208     0.13000
H884        H  0.35543001  0.53211425  0.75676020     0.13000
H885        H  0.50197449  0.98791297  0.71589000     0.26300
H886        H  0.50053721  0.52963360  0.75506532     0.26300
O887        O  0.81569694  0.85732887  0.62436954    -0.57700
C888        C  0.75769336  0.79051738  0.68184398     0.74900
O889        O  0.68557205  0.85962523  0.62084680    -0.58800
C890        C  0.81373188  0.86924435  0.59124580     0.74900
C891        C  0.73793122  0.79289530  0.55934577     0.77300
Cd892      Cd  0.74995445  0.83411332  0.62155263     1.37500
O893        O  0.78662443  0.80647563  0.67178772    -0.57700
O894        O  0.76339078  0.78861839  0.58525974    -0.56500
C895        C  0.69246479  0.87691068  0.64884007     0.77300
O896        O  0.71691810  0.81617807  0.56246707    -0.58900
O897        O  0.72528051  0.79618877  0.66560937    -0.57300
O898        O  0.78228354  0.86511806  0.57283862    -0.57300
O899        O  0.72553824  0.87385584  0.66491160    -0.56500
O900        O  0.68118172  0.65144361  0.86692867    -0.57700
C901        C  0.73727458  0.70815768  0.93483907     0.74900
O902        O  0.81086753  0.63590038  0.86588206    -0.58800
C903        C  0.68888349  0.62664233  0.85099466     0.74900
C904        C  0.76168107  0.70426128  0.80612967     0.77300
Cd905      Cd  0.75055984  0.66666031  0.87312894     1.37500
O906        O  0.71939609  0.68340267  0.93384284    -0.57700
O907        O  0.78922113  0.69961931  0.82988083    -0.56500
C908        C  0.81185857  0.62739075  0.90074102     0.77300
O909        O  0.73000148  0.69059598  0.81282885    -0.58900
O910        O  0.75955398  0.71403732  0.90673950    -0.57300
O911        O  0.72470872  0.62044508  0.84598598    -0.57300
O912        O  0.78579572  0.63805884  0.92265929    -0.56500
C913        C  0.76138876  0.76664386  0.71124049    -0.06000
C914        C  0.78841916  0.77024690  0.74134786    -0.17100
C915        C  0.79083511  0.74955062  0.77166844     0.11200
C916        C  0.76512846  0.72474913  0.77253310    -0.05900
C917        C  0.73923583  0.72060916  0.74151284    -0.17200
C918        C  0.73760839  0.74079278  0.71071877     0.11200
S919        S  0.82517342  0.75743546  0.80963760    -0.32100
S920        S  0.70531403  0.73167294  0.67130008    -0.32100
H921        H  0.73129451  0.74141768  0.64239001     0.29200
H922        H  0.84554729  0.73031360  0.80456010     0.29200
H923        H  0.80710081  0.78980003  0.74188079     0.19800
H924        H  0.71998682  0.70137352  0.74115779     0.19800
C925        C  0.73350362  0.72909388  0.96731373    -0.06000
C926        C  0.72862017  0.75962728  0.95916516    -0.17100
C927        C  0.72858738  0.78094654  0.98860907     0.11200
C928        C  0.73375625  0.77158982  0.52723831    -0.05900
C929        C  0.73766906  0.74095733  0.53540490    -0.17200
C930        C  0.73759099  0.71965994  0.50598515     0.11200
S931        S  0.72441792  0.81966317  0.97458086    -0.32100
S932        S  0.74528310  0.68114757  0.51963257    -0.32100
H933        H  0.77134665  0.67470331  0.98920532     0.29200
H934        H  0.75374521  0.82971194  0.49996589     0.29200
H935        H  0.72575170  0.76700017  0.92949031     0.19800
H936        H  0.74176993  0.73358511  0.56494098     0.19800
C937        C  0.60622691  0.93873837  0.69282492    -0.06000
C938        C  0.60750675  0.93248822  0.65321192    -0.17100
C939        C  0.63590780  0.91318725  0.63784578     0.11200
C940        C  0.66339681  0.89917827  0.66265072    -0.05900
C941        C  0.66261567  0.90605654  0.70212091    -0.17200
C942        C  0.63422226  0.92529230  0.71747090     0.11200
S943        S  0.63655735  0.90848940  0.58625466    -0.32100
S944        S  0.63461629  0.93101411  0.76890250    -0.32100
H945        H  0.59369712  0.93294260  0.77303429     0.29200
H946        H  0.67769883  0.90915819  0.58322103     0.29200
H947        H  0.58636700  0.94296223  0.63409628     0.19800
H948        H  0.68348280  0.89554317  0.72148385     0.19800
C949        C  0.60180031  0.56888979  0.80232486    -0.06000
C950        C  0.63273295  0.55669119  0.82395378    -0.17100
C951        C  0.66069189  0.57499623  0.84141977     0.11200
C952        C  0.65780232  0.60639301  0.83740129    -0.05900
C953        C  0.62620268  0.61868127  0.81678562    -0.17200
C954        C  0.59867633  0.60033743  0.79860469     0.11200
S955        S  0.69840905  0.55688646  0.86957167    -0.32100
S956        S  0.56099128  0.61841339  0.77028221    -0.32100
H957        H  0.55582495  0.59494975  0.74390463     0.29200
H958        H  0.70160411  0.57978694  0.89709547     0.29200
H959        H  0.63479860  0.53265662  0.82762267     0.19800
H960        H  0.62397428  0.64272579  0.81326289     0.19800
C961        C  0.34112130  0.60186732  0.83898078    -0.06000
C962        C  0.35653457  0.60717015  0.80207821    -0.17100
C963        C  0.38635494  0.58917407  0.78691757     0.11200
C964        C  0.39996506  0.56422817  0.80813716    -0.05900
C965        C  0.38427457  0.55857997  0.84486379    -0.17200
C966        C  0.35523122  0.57720343  0.86059191     0.11200
S967        S  0.40578252  0.59917772  0.74027416    -0.32100
S968        S  0.33639037  0.56766414  0.90758282    -0.32100
H969        H  0.29734977  0.57560754  0.89925425     0.29200
H970        H  0.44436583  0.58956008  0.74743511     0.29200
H971        H  0.34611910  0.62611737  0.78535723     0.19800
H972        H  0.39457165  0.53941748  0.86122164     0.19800
C973        C  0.40175590  0.93479430  0.69577646    -0.06000
C974        C  0.37617455  0.92129888  0.72220274    -0.17100
C975        C  0.34707846  0.90139458  0.71007711     0.11200
C976        C  0.34356979  0.89461769  0.67038953    -0.05900
C977        C  0.36998891  0.90746837  0.64410805    -0.17200
C978        C  0.39864883  0.92769721  0.65621202     0.11200
S979        S  0.31649629  0.88364812  0.74603802    -0.32100
S980        S  0.43001326  0.94367954  0.61967265    -0.32100
H981        H  0.43850900  0.97036905  0.63918249     0.29200
H982        H  0.32704477  0.90216146  0.77705587     0.29200
H983        H  0.37944017  0.92624311  0.75257653     0.19800
H984        H  0.36763761  0.90234926  0.61367422     0.19800
C985        C  0.24635641  0.77264908  0.72536588    -0.06000
C986        C  0.27947473  0.75437343  0.73139776    -0.17100
C987        C  0.28059587  0.73291961  0.76078582     0.11200
C988        C  0.24788985  0.72934047  0.78537586    -0.05900
C989        C  0.21472272  0.74742578  0.77953451    -0.17200
C990        C  0.21391249  0.76938779  0.75056643     0.11200
S991        S  0.32417423  0.71006546  0.76424196    -0.32100
S992        S  0.17158130  0.79349016  0.74904258    -0.32100
H993        H  0.19395568  0.81987804  0.74762283     0.29200
H994        H  0.30389840  0.68329515  0.77163849     0.29200
H995        H  0.30471262  0.75635717  0.71260379     0.19800
H996        H  0.18980684  0.74528618  0.79872685     0.19800
C997        C  0.25989638  0.77182567  0.53338667    -0.06000
C998        C  0.23086406  0.74958530  0.53285984    -0.17100
C999        C  0.23090792  0.72697334  0.50522960     0.11200
C1000       C  0.26035760  0.72648509  0.97662877    -0.05900
C1001       C  0.28992816  0.74822463  0.97735321    -0.17200
C1002       C  0.28969602  0.77113513  0.00488890     0.11200
S1003       S  0.19319595  0.69887509  0.50889857    -0.32100
S1004       S  0.32675034  0.79955430  0.00046043    -0.32100
H1005       H  0.29998355  0.82344584  0.50464053     0.29200
H1006       H  0.21718453  0.67499888  0.99687709     0.29200
H1007       H  0.20813612  0.74936778  0.55468771     0.19800
H1008       H  0.31228255  0.74824308  0.95514317     0.19800
C1009       C  0.89704854  0.56597869  0.94752526    -0.06000
C1010       C  0.88248873  0.56164309  0.91012373    -0.17100
C1011       C  0.85497220  0.58132490  0.89395766     0.11200
C1012       C  0.84148099  0.60604478  0.91563089    -0.05900
C1013       C  0.85573296  0.61010056  0.95325800    -0.17200
C1014       C  0.88377382  0.59074045  0.96916500     0.11200
S1015       S  0.83709019  0.57287862  0.84631887    -0.32100
S1016       S  0.90121310  0.59902618  0.51705730    -0.32100
H1017       H  0.93771607  0.58461687  0.51436314     0.29200
H1018       H  0.79766915  0.57945631  0.85485290     0.29200
H1019       H  0.89272381  0.54272051  0.89341643     0.19800
H1020       H  0.84552758  0.62892571  0.97017847     0.19800
C1021       C  0.84572617  0.88802336  0.57557128    -0.06000
C1022       C  0.87019844  0.90312639  0.60157749    -0.17100
C1023       C  0.89767723  0.92408540  0.58870684     0.11200
C1024       C  0.90115438  0.93007856  0.54883928    -0.05900
C1025       C  0.87783242  0.91424023  0.52273941    -0.17200
C1026       C  0.85078917  0.89296644  0.53550967     0.11200
S1027       S  0.92730870  0.94246149  0.62455506    -0.32100
S1028       S  0.82525643  0.87201788  0.49903399    -0.32100
H1029       H  0.82713889  0.84468148  0.51919707     0.29200
H1030       H  0.93216435  0.96940577  0.60417652     0.29200
H1031       H  0.86704317  0.89936583  0.63230335     0.19800
H1032       H  0.88144487  0.91801556  0.99203911     0.19800
C1033       C  0.10458622  0.93364268  0.55001345    -0.06000
C1034       C  0.10808610  0.93207907  0.59027124    -0.17100
C1035       C  0.13783043  0.91513322  0.60778876     0.11200
C1036       C  0.16403500  0.89838459  0.58466404    -0.05900
C1037       C  0.16081636  0.90047934  0.54432696    -0.17200
C1038       C  0.13142956  0.91769941  0.52683025     0.11200
S1039       S  0.14218095  0.91738560  0.65944606    -0.32100
S1040       S  0.12979703  0.91838317  0.97487022    -0.32100
H1041       H  0.08924624  0.92329488  0.97144557     0.29200
H1042       H  0.18343525  0.91777123  0.65945764     0.29200
H1043       H  0.08809880  0.94485775  0.60813807     0.19800
H1044       H  0.18075335  0.88793501  0.52614231     0.19800
C1045       C  0.10038530  0.56714449  0.94479075    -0.06000
C1046       C  0.11411105  0.56414207  0.90688533    -0.17100
C1047       C  0.14366994  0.58276063  0.89257580     0.11200
C1048       C  0.15999788  0.60487696  0.91669156    -0.05900
C1049       C  0.14624552  0.60778965  0.95463994    -0.17200
C1050       C  0.11614804  0.58960278  0.96866287     0.11200
S1051       S  0.16050715  0.57618952  0.84407018    -0.32100
S1052       S  0.09950310  0.59570444  0.51739058    -0.32100
H1053       H  0.06051492  0.58683698  0.51126849     0.29200
H1054       H  0.20019036  0.58218525  0.85178165     0.29200
H1055       H  0.10213921  0.54681401  0.88859665     0.19800
H1056       H  0.15847104  0.62481922  0.97324920     0.19800
loop_ 
_geom_bond_atom_site_label_1 
_geom_bond_atom_site_label_2 
_geom_bond_distance 
_geom_bond_site_symmetry_2 
_ccdc_geom_bond_type 
N1            C6   1.354   1_655  A
N1            C5   1.354       .  A
N1           H33   1.031   1_655  S
N2           C10   1.352   1_556  A
N2          C801   1.353       .  A
N3            C8   1.354       .  A
N3            C7   1.353   1_455  A
N3           H34   1.038       .  S
N4           C12   1.352   1_556  A
N4          C803   1.352       .  A
C5           C13   1.388       .  A
C5           C21   1.418       .  A
C6           C22   1.417       .  A
C6           C14   1.387       .  A
C7           C15   1.388       .  A
C7           C24   1.416       .  A
C8           C23   1.415       .  A
C8           C16   1.386       .  A
C9          N794   1.353   1_545  A
C9           C21   1.418       .  A
C9           C17   1.386       .  A
C10          C24   1.416       .  A
C10          C18   1.387       .  A
C11         N796   1.352   1_545  A
C11          C19   1.387       .  A
C11          C22   1.416       .  A
C12          C20   1.386       .  A
C12          C23   1.413       .  A
C13          C14   1.373   1_655  A
C13          H25   1.082       .  S
C14          H26   1.082       .  S
C15          C16   1.375   1_655  A
C15          H27   1.082       .  S
C16          H28   1.082       .  S
C17         C810   1.375   1_545  A
C17          H29   1.082       .  S
C18         C809   1.376   1_554  A
C18          H30   1.082       .  S
C19         C812   1.371   1_545  A
C19          H31   1.082       .  S
C20         C811   1.371   1_554  A
C20          H32   1.082       .  S
C21         C217   1.488       .  S
C22         C253   1.485       .  S
C23         C241   1.489       .  S
C24         C232   1.488       .  S
O35          C38   1.268       .  A
O35         Cd40   2.467       .  S
C36         C205   1.485       .  S
C36          O45   1.265       .  A
C36          O41   1.267       .  A
O37          C43   1.268       .  A
O37         Cd40   2.488       .  S
C38         C184   1.480       .  S
C38          O46   1.264       .  A
C39         C244   1.485       .  S
C39          O44   1.268       .  A
C39          O42   1.265       .  A
Cd40         O47   2.446       .  S
Cd40         O46   2.435       .  S
Cd40         O45   2.432       .  S
Cd40         O41   2.482       .  S
Cd40         O44   2.491       .  S
Cd40         O42   2.448       .  S
C43         C193   1.491       .  S
C43          O47   1.264       .  A
O48          C51   1.267       .  A
O48         Cd53   2.487       .  S
C49         C208   1.475       .  S
C49          O58   1.264       .  A
C49          O54   1.268       .  A
O50          C56   1.268       .  A
O50         Cd53   2.487       .  S
C51         C169   1.480       .  S
C51          O59   1.264       .  A
C52         C256   1.474       .  S
C52          O57   1.268       .  A
C52          O55   1.264       .  A
Cd53         O60   2.432       .  S
Cd53         O59   2.456       .  S
Cd53         O58   2.430       .  S
Cd53         O54   2.484       .  S
Cd53         O57   2.473       .  S
Cd53         O55   2.446       .  S
C56         C196   1.480       .  S
C56          O60   1.264       .  A
N61          C66   1.352       .  A
N61          C65   1.354       .  A
N61          H93   1.039       .  S
N62          C70   1.352       .  A
N62         C597   1.352   1_545  A
N63          C68   1.353       .  A
N63          C67   1.351       .  A
N63          H94   1.040       .  S
N64          C72   1.353   1_565  A
N64         C599   1.351       .  A
C65          C73   1.387       .  A
C65          C81   1.416       .  A
C66          C82   1.415       .  A
C66          C74   1.387       .  A
C67          C75   1.387       .  A
C67          C84   1.415       .  A
C68          C83   1.413       .  A
C68          C76   1.386       .  A
C69         N590   1.352       .  A
C69          C81   1.414       .  A
C69          C77   1.385       .  A
C70          C84   1.416       .  A
C70          C78   1.387       .  A
C71         N592   1.351       .  A
C71          C79   1.387       .  A
C71          C82   1.415       .  A
C72          C80   1.386       .  A
C72          C83   1.415       .  A
C73          C74   1.376       .  A
C73          H85   1.082       .  S
C74          H86   1.082       .  S
C75          C76   1.375       .  A
C75          H87   1.082       .  S
C76          H88   1.082       .  S
C77         C606   1.376       .  A
C77          H89   1.082       .  S
C78         C605   1.376       .  A
C78          H90   1.082       .  S
C79         C608   1.374       .  A
C79          H91   1.082       .  S
C80         C607   1.374   1_545  A
C80          H92   1.082       .  S
C81         C145   1.492       .  S
C82         C181   1.488       .  S
C83         C172   1.489       .  S
C84         C157   1.490       .  S
O95          C98   1.267       .  A
O95        Cd100   2.476       .  S
C96         C121   1.479       .  S
C96         O105   1.265       .  A
C96         O101   1.268       .  A
O97         C103   1.265       .  A
O97        Cd100   2.471       .  S
C98         C229   1.482       .  S
C98         O106   1.263       .  A
C99         C136   1.475       .  S
C99         O104   1.267       .  A
C99         O102   1.264       .  A
Cd100       O107   2.474       .  S
Cd100       O106   2.447       .  S
Cd100       O105   2.431       .  S
Cd100       O101   2.470       .  S
Cd100       O104   2.476       .  S
Cd100       O102   2.437       .  S
C103        C148   1.483       .  S
C103        O107   1.265       .  A
O108        C111   1.267       .  A
O108       Cd113   2.474       .  S
C109        C133   1.472       .  S
C109        O118   1.263       .  A
C109        O114   1.266       .  A
O110        C116   1.267       .  A
O110       Cd113   2.484       .  S
C111        C160   1.475       .  S
C111        O119   1.264       .  A
C112        C124   1.485       .  S
C112        O117   1.264       .  A
C112        O115   1.266       .  A
Cd113       O120   2.452       .  S
Cd113       O119   2.441       .  S
Cd113       O118   2.441       .  S
Cd113       O114   2.476       .  S
Cd113       O117   2.449       .  S
Cd113       O115   2.482       .  S
C116        C220   1.480       .  S
C116        O120   1.263       .  A
C121        C122   1.403       .  A
C121        C126   1.414       .  A
C122        C123   1.401       .  A
C122        H131   1.084       .  S
C123        C124   1.416       .  A
C123        S127   1.799       .  S
C124        C125   1.405       .  A
C125        C126   1.397       .  A
C125        H132   1.084       .  S
C126        S128   1.804       .  S
S127        H130   1.407       .  S
S128        H129   1.407       .  S
C133        C134   1.403       .  A
C133        C402   1.412       .  A
C134        C135   1.399       .  A
C134        H143   1.084       .  S
C135        C400   1.413       .  A
C135        S139   1.802       .  S
C136        C137   1.404       .  A
C136        C399   1.413   1_554  A
C137        C138   1.398       .  A
C137        H144   1.084       .  S
C138        C397   1.412   1_554  A
C138        S140   1.803       .  S
S139        H406   1.405       .  S
S140        H405   1.406   1_554  S
H141        S404   1.406       .  S
H142        S403   1.405       .  S
C145        C146   1.404       .  A
C145        C150   1.413       .  A
C146        C147   1.402       .  A
C146        H155   1.084       .  S
C147        C148   1.416       .  A
C147        S151   1.802       .  S
C148        C149   1.404       .  A
C149        C150   1.400       .  A
C149        H156   1.084       .  S
C150        S152   1.803       .  S
S151        H154   1.408       .  S
S152        H153   1.406       .  S
C157        C158   1.403       .  A
C157        C162   1.415       .  A
C158        C159   1.398       .  A
C158        H167   1.084       .  S
C159        C160   1.413       .  A
C159        S163   1.804       .  S
C160        C161   1.403       .  A
C161        C162   1.400       .  A
C161        H168   1.084       .  S
C162        S164   1.805       .  S
S163        H166   1.407       .  S
S164        H165   1.406       .  S
C169        C170   1.404       .  A
C169        C174   1.415       .  A
C170        C171   1.399       .  A
C170        H179   1.084       .  S
C171        C172   1.412       .  A
C171        S175   1.804       .  S
C172        C173   1.404       .  A
C173        C174   1.404       .  A
C173        H180   1.084       .  S
C174        S176   1.803       .  S
S175        H178   1.405       .  S
S176        H177   1.407       .  S
C181        C182   1.402       .  A
C181        C186   1.413       .  A
C182        C183   1.401       .  A
C182        H191   1.083       .  S
C183        C184   1.416       .  A
C183        S187   1.810       .  S
C184        C185   1.405       .  A
C185        C186   1.399       .  A
C185        H192   1.084       .  S
C186        S188   1.806       .  S
S187        H190   1.407       .  S
S188        H189   1.405       .  S
C193        C194   1.407       .  A
C193        C198   1.418       .  A
C194        C195   1.398       .  A
C194        H203   1.084       .  S
C195        C196   1.413       .  A
C195        S199   1.805       .  S
C196        C197   1.403       .  A
C197        C198   1.403       .  A
C197        H204   1.084       .  S
C198        S200   1.800       .  S
S199        H202   1.407       .  S
S200        H201   1.408       .  S
C205        C206   1.406       .  A
C205        C474   1.417       .  A
C206        C207   1.395       .  A
C206        H215   1.084       .  S
C207        C472   1.411   1_554  A
C207        S211   1.805       .  S
C208        C209   1.403       .  A
C208        C471   1.411       .  A
C209        C210   1.403       .  A
C209        H216   1.084       .  S
C210        C469   1.417       .  A
C210        S212   1.802       .  S
S211        H478   1.407   1_554  S
S212        H477   1.408       .  S
H213        S476   1.408       .  S
H214        S475   1.407       .  S
C217        C218   1.403       .  A
C217        C222   1.413       .  A
C218        C219   1.400       .  A
C218        H227   1.084       .  S
C219        C220   1.414       .  A
C219        S223   1.803       .  S
C220        C221   1.405       .  A
C221        C222   1.400       .  A
C221        H228   1.084       .  S
C222        S488   1.806       .  S
S223        H226   1.407       .  S
S224        C486   1.806   1_554  S
S224        H225   1.404       .  S
C229        C230   1.405       .  A
C229        C234   1.417       .  A
C230        C231   1.400       .  A
C230        H239   1.084       .  S
C231        C232   1.413       .  A
C231        S235   1.804       .  S
C232        C233   1.401       .  A
C233        C234   1.398       .  A
C233        H504   1.084   1_554  S
C234        S236   1.803   1_554  S
S235        H238   1.405       .  S
S236        H237   1.408   1_556  S
H240        C497   1.084       .  S
C241        C242   1.403       .  A
C241        C246   1.412       .  A
C242        C243   1.402       .  A
C242        H251   1.084       .  S
C243        C244   1.415       .  A
C243        S247   1.801       .  S
C244        C245   1.406       .  A
C245        C246   1.399       .  A
C245        H252   1.084       .  S
C246        S512   1.804   1_554  S
S247        H250   1.407       .  S
S248        C510   1.804       .  S
S248        H249   1.405       .  S
C253        C254   1.402       .  A
C253        C258   1.411       .  A
C254        C255   1.400       .  A
C254        H263   1.084       .  S
C255        C256   1.413       .  A
C255        S259   1.802       .  S
C256        C257   1.404       .  A
C257        C258   1.398       .  A
C257        H264   1.084       .  S
C258        S524   1.804       .  S
S259        H262   1.407       .  S
S260        C522   1.804   1_554  S
S260        H261   1.405       .  S
N265        C270   1.354   1_655  A
N265        C269   1.354       .  A
N265        H297   1.031   1_655  S
N266        C537   1.353       .  A
N266        C274   1.352       .  A
N267        C272   1.354       .  A
N267        C271   1.353   1_455  A
N267        H298   1.038       .  S
N268        C539   1.352       .  A
N268        C276   1.352       .  A
C269        C277   1.388       .  A
C269        C285   1.418       .  A
C270        C286   1.417       .  A
C270        C278   1.387       .  A
C271        C279   1.388       .  A
C271        C288   1.416       .  A
C272        C287   1.415       .  A
C272        C280   1.386       .  A
C273        N530   1.353   1_545  A
C273        C285   1.418       .  A
C273        C281   1.386       .  A
C274        C288   1.416       .  A
C274        C282   1.387       .  A
C275        N532   1.352   1_545  A
C275        C283   1.387       .  A
C275        C286   1.416       .  A
C276        C284   1.386       .  A
C276        C287   1.413       .  A
C277        C278   1.373   1_655  A
C277        H289   1.082       .  S
C278        H290   1.082       .  S
C279        C280   1.375   1_655  A
C279        H291   1.082       .  S
C280        H292   1.082       .  S
C281        C546   1.376   1_546  A
C281        H293   1.082       .  S
C282        C545   1.375       .  A
C282        H294   1.082       .  S
C283        C548   1.371   1_546  A
C283        H295   1.082       .  S
C284        C547   1.371       .  A
C284        H296   1.082       .  S
C285        C481   1.489       .  S
C286        C517   1.485       .  S
C287        C505   1.489       .  S
C288        C496   1.488       .  S
O299        C302   1.268       .  A
O299       Cd304   2.467       .  S
C300        C469   1.485       .  S
C300        O309   1.265       .  A
C300        O305   1.267       .  A
O301        C307   1.268       .  A
O301       Cd304   2.489       .  S
C302        C448   1.480       .  S
C302        O310   1.264       .  A
C303        C508   1.485       .  S
C303        O308   1.268       .  A
C303        O306   1.265       .  A
Cd304       O311   2.447       .  S
Cd304       O310   2.436       .  S
Cd304       O309   2.432       .  S
Cd304       O305   2.482       .  S
Cd304       O308   2.491       .  S
Cd304       O306   2.448       .  S
C307        C457   1.491       .  S
C307        O311   1.264       .  A
O312        C315   1.267       .  A
O312       Cd317   2.488       .  S
C313        C472   1.475       .  S
C313        O322   1.264       .  A
C313        O318   1.268       .  A
O314        C320   1.268       .  A
O314       Cd317   2.487       .  S
C315        C433   1.479       .  S
C315        O323   1.264       .  A
C316        C520   1.474       .  S
C316        O321   1.268       .  A
C316        O319   1.264       .  A
Cd317       O324   2.432       .  S
Cd317       O323   2.456       .  S
Cd317       O322   2.430       .  S
Cd317       O318   2.484       .  S
Cd317       O321   2.473       .  S
Cd317       O319   2.446       .  S
C320        C460   1.480       .  S
C320        O324   1.264       .  A
N325        C330   1.352       .  A
N325        C329   1.354       .  A
N325        H357   1.039       .  S
N326        C861   1.352   1_545  A
N326        C334   1.352       .  A
N327        C332   1.353       .  A
N327        C331   1.351       .  A
N327        H358   1.039       .  S
N328        C863   1.351       .  A
N328        C336   1.353   1_565  A
C329        C337   1.387       .  A
C329        C345   1.416       .  A
C330        C346   1.415       .  A
C330        C338   1.387       .  A
C331        C339   1.387       .  A
C331        C348   1.415       .  A
C332        C347   1.413       .  A
C332        C340   1.386       .  A
C333        N854   1.352       .  A
C333        C345   1.414       .  A
C333        C341   1.385       .  A
C334        C348   1.416       .  A
C334        C342   1.387       .  A
C335        N856   1.351       .  A
C335        C343   1.387       .  A
C335        C346   1.415       .  A
C336        C344   1.386       .  A
C336        C347   1.415       .  A
C337        C338   1.376       .  A
C337        H349   1.082       .  S
C338        H350   1.082       .  S
C339        C340   1.375       .  A
C339        H351   1.082       .  S
C340        H352   1.082       .  S
C341        C870   1.376       .  A
C341        H353   1.082       .  S
C342        C869   1.376       .  A
C342        H354   1.082       .  S
C343        C872   1.374       .  A
C343        H355   1.082       .  S
C344        C871   1.374   1_545  A
C344        H356   1.082       .  S
C345        C409   1.492       .  S
C346        C445   1.488       .  S
C347        C436   1.489       .  S
C348        C421   1.490       .  S
O359        C362   1.267       .  A
O359       Cd364   2.476       .  S
C360        C385   1.479       .  S
C360        O369   1.265       .  A
C360        O365   1.268       .  A
O361        C367   1.265       .  A
O361       Cd364   2.472       .  S
C362        C493   1.482       .  S
C362        O370   1.263       .  A
C363        C400   1.475       .  S
C363        O368   1.267       .  A
C363        O366   1.264       .  A
Cd364       O371   2.474       .  S
Cd364       O370   2.447       .  S
Cd364       O369   2.432       .  S
Cd364       O365   2.471       .  S
Cd364       O368   2.476       .  S
Cd364       O366   2.438       .  S
C367        C412   1.483       .  S
C367        O371   1.265       .  A
O372        C375   1.267       .  A
O372       Cd377   2.474       .  S
C373        C397   1.472       .  S
C373        O382   1.263       .  A
C373        O378   1.266       .  A
O374        C380   1.267       .  A
O374       Cd377   2.484       .  S
C375        C424   1.475       .  S
C375        O383   1.264       .  A
C376        C388   1.485       .  S
C376        O381   1.264       .  A
C376        O379   1.266       .  A
Cd377       O384   2.451       .  S
Cd377       O383   2.441       .  S
Cd377       O382   2.441       .  S
Cd377       O378   2.476       .  S
Cd377       O381   2.448       .  S
Cd377       O379   2.482       .  S
C380        C484   1.480       .  S
C380        O384   1.263       .  A
C385        C386   1.403       .  A
C385        C390   1.415       .  A
C386        C387   1.401       .  A
C386        H395   1.084       .  S
C387        C388   1.416       .  A
C387        S391   1.799       .  S
C388        C389   1.405       .  A
C389        C390   1.397       .  A
C389        H396   1.084       .  S
C390        S392   1.804       .  S
S391        H394   1.407       .  S
S392        H393   1.407       .  S
C397        C398   1.403       .  A
C398        C399   1.399       .  A
C398        H407   1.084       .  S
C399        S403   1.802       .  S
C400        C401   1.404       .  A
C401        C402   1.398       .  A
C401        H408   1.084       .  S
C402        S404   1.803       .  S
C409        C410   1.404       .  A
C409        C414   1.413       .  A
C410        C411   1.402       .  A
C410        H419   1.084       .  S
C411        C412   1.416       .  A
C411        S415   1.802       .  S
C412        C413   1.404       .  A
C413        C414   1.399       .  A
C413        H420   1.084       .  S
C414        S416   1.803       .  S
S415        H418   1.408       .  S
S416        H417   1.406       .  S
C421        C422   1.403       .  A
C421        C426   1.415       .  A
C422        C423   1.398       .  A
C422        H431   1.084       .  S
C423        C424   1.413       .  A
C423        S427   1.804       .  S
C424        C425   1.403       .  A
C425        C426   1.400       .  A
C425        H432   1.084       .  S
C426        S428   1.805       .  S
S427        H430   1.407       .  S
S428        H429   1.406       .  S
C433        C434   1.404       .  A
C433        C438   1.415       .  A
C434        C435   1.399       .  A
C434        H443   1.084       .  S
C435        C436   1.412       .  A
C435        S439   1.804       .  S
C436        C437   1.404       .  A
C437        C438   1.403       .  A
C437        H444   1.084       .  S
C438        S440   1.802       .  S
S439        H442   1.405       .  S
S440        H441   1.407       .  S
C445        C446   1.402       .  A
C445        C450   1.413       .  A
C446        C447   1.401       .  A
C446        H455   1.083       .  S
C447        C448   1.416       .  A
C447        S451   1.809       .  S
C448        C449   1.405       .  A
C449        C450   1.399       .  A
C449        H456   1.084       .  S
C450        S452   1.806       .  S
S451        H454   1.407       .  S
S452        H453   1.405       .  S
C457        C458   1.407       .  A
C457        C462   1.418       .  A
C458        C459   1.398       .  A
C458        H467   1.084       .  S
C459        C460   1.414       .  A
C459        S463   1.805       .  S
C460        C461   1.403       .  A
C461        C462   1.403       .  A
C461        H468   1.084       .  S
C462        S464   1.800       .  S
S463        H466   1.407       .  S
S464        H465   1.408       .  S
C469        C470   1.406       .  A
C470        C471   1.395       .  A
C470        H479   1.084       .  S
C471        S475   1.805       .  S
C472        C473   1.403       .  A
C473        C474   1.403   1_556  A
C473        H480   1.084       .  S
C474        S476   1.802       .  S
C481        C482   1.403       .  A
C481        C486   1.413       .  A
C482        C483   1.401       .  A
C482        H491   1.084       .  S
C483        C484   1.414       .  A
C483        S487   1.803       .  S
C484        C485   1.405       .  A
C485        C486   1.400       .  A
C485        H492   1.084       .  S
S487        H490   1.407       .  S
S488        H489   1.403       .  S
C493        C494   1.405       .  A
C493        C498   1.417       .  A
C494        C495   1.400       .  A
C494        H503   1.084       .  S
C495        C496   1.413       .  A
C495        S499   1.804       .  S
C496        C497   1.401       .  A
C497        C498   1.398       .  A
C498        S500   1.803       .  S
S499        H502   1.405       .  S
S500        H501   1.408       .  S
C505        C506   1.403       .  A
C505        C510   1.412       .  A
C506        C507   1.402       .  A
C506        H515   1.084       .  S
C507        C508   1.415       .  A
C507        S511   1.801       .  S
C508        C509   1.406       .  A
C509        C510   1.399       .  A
C509        H516   1.084       .  S
S511        H514   1.407       .  S
S512        H513   1.405       .  S
C517        C518   1.402       .  A
C517        C522   1.411       .  A
C518        C519   1.400       .  A
C518        H527   1.084       .  S
C519        C520   1.413       .  A
C519        S523   1.802       .  S
C520        C521   1.404       .  A
C521        C522   1.398       .  A
C521        H528   1.084       .  S
S523        H526   1.407       .  S
S524        H525   1.405       .  S
N529        C534   1.354   1_655  A
N529        C533   1.354       .  A
N529        H561   1.031   1_655  S
N530        C538   1.352   1_556  A
N531        C536   1.354       .  A
N531        C535   1.353   1_455  A
N531        H562   1.038       .  S
N532        C540   1.352   1_556  A
C533        C541   1.388       .  A
C533        C549   1.418       .  A
C534        C550   1.417       .  A
C534        C542   1.387       .  A
C535        C543   1.388       .  A
C535        C552   1.416       .  A
C536        C551   1.415       .  A
C536        C544   1.386       .  A
C537        C549   1.418       .  A
C537        C545   1.386       .  A
C538        C552   1.416       .  A
C538        C546   1.387       .  A
C539        C547   1.387       .  A
C539        C550   1.416       .  A
C540        C548   1.386       .  A
C540        C551   1.413       .  A
C541        C542   1.373   1_655  A
C541        H553   1.082       .  S
C542        H554   1.082       .  S
C543        C544   1.375   1_655  A
C543        H555   1.082       .  S
C544        H556   1.082       .  S
C545        H557   1.082       .  S
C546        H558   1.082       .  S
C547        H559   1.082       .  S
C548        H560   1.082       .  S
C549        C745   1.488       .  S
C550        C781   1.485       .  S
C551        C769   1.489       .  S
C552        C760   1.488       .  S
O563        C566   1.268       .  A
O563       Cd568   2.467       .  S
C564        C733   1.485       .  S
C564        O573   1.265       .  A
C564        O569   1.267       .  A
O565        C571   1.268       .  A
O565       Cd568   2.488       .  S
C566        C712   1.480       .  S
C566        O574   1.264       .  A
C567        C772   1.485       .  S
C567        O572   1.268       .  A
C567        O570   1.265       .  A
Cd568       O575   2.447       .  S
Cd568       O574   2.435       .  S
Cd568       O573   2.432       .  S
Cd568       O569   2.482       .  S
Cd568       O572   2.491       .  S
Cd568       O570   2.448       .  S
C571        C721   1.491       .  S
C571        O575   1.264       .  A
O576        C579   1.267       .  A
O576       Cd581   2.487       .  S
C577        C736   1.475       .  S
C577        O586   1.264       .  A
C577        O582   1.268       .  A
O578        C584   1.268       .  A
O578       Cd581   2.487       .  S
C579        C697   1.480       .  S
C579        O587   1.264       .  A
C580        C784   1.474       .  S
C580        O585   1.268       .  A
C580        O583   1.264       .  A
Cd581       O588   2.432       .  S
Cd581       O587   2.456       .  S
Cd581       O586   2.430       .  S
Cd581       O582   2.484       .  S
Cd581       O585   2.473       .  S
Cd581       O583   2.446       .  S
C584        C724   1.480       .  S
C584        O588   1.264       .  A
N589        C594   1.352       .  A
N589        C593   1.354       .  A
N589        H621   1.039       .  S
N590        C598   1.352       .  A
N591        C596   1.353       .  A
N591        C595   1.351       .  A
N591        H622   1.040       .  S
N592        C600   1.353       .  A
C593        C601   1.387       .  A
C593        C609   1.416       .  A
C594        C610   1.415       .  A
C594        C602   1.387       .  A
C595        C603   1.387       .  A
C595        C612   1.415       .  A
C596        C611   1.413       .  A
C596        C604   1.386       .  A
C597        C609   1.414       .  A
C597        C605   1.385   1_565  A
C598        C612   1.416       .  A
C598        C606   1.387       .  A
C599        C607   1.387       .  A
C599        C610   1.415       .  A
C600        C608   1.386       .  A
C600        C611   1.415       .  A
C601        C602   1.376       .  A
C601        H613   1.082       .  S
C602        H614   1.082       .  S
C603        C604   1.375       .  A
C603        H615   1.082       .  S
C604        H616   1.082       .  S
C605        H617   1.082   1_545  S
C606        H618   1.082       .  S
C607        H619   1.082       .  S
C608        H620   1.082       .  S
C609        C673   1.492       .  S
C610        C709   1.488       .  S
C611        C700   1.489       .  S
C612        C685   1.490       .  S
O623        C626   1.267       .  A
O623       Cd628   2.476       .  S
C624        C649   1.479       .  S
C624        O633   1.265       .  A
C624        O629   1.268       .  A
O625        C631   1.265       .  A
O625       Cd628   2.471       .  S
C626        C757   1.482       .  S
C626        O634   1.263       .  A
C627        C664   1.475       .  S
C627        O632   1.267       .  A
C627        O630   1.264       .  A
Cd628       O635   2.474       .  S
Cd628       O634   2.447       .  S
Cd628       O633   2.431       .  S
Cd628       O629   2.470       .  S
Cd628       O632   2.476       .  S
Cd628       O630   2.437       .  S
C631        C676   1.483       .  S
C631        O635   1.265       .  A
O636        C639   1.267       .  A
O636       Cd641   2.474       .  S
C637        C661   1.472       .  S
C637        O646   1.263       .  A
C637        O642   1.266       .  A
O638        C644   1.267       .  A
O638       Cd641   2.484       .  S
C639        C688   1.475       .  S
C639        O647   1.264       .  A
C640        C652   1.485       .  S
C640        O645   1.264       .  A
C640        O643   1.266       .  A
Cd641       O648   2.452       .  S
Cd641       O647   2.441       .  S
Cd641       O646   2.441       .  S
Cd641       O642   2.476       .  S
Cd641       O645   2.449       .  S
Cd641       O643   2.482       .  S
C644        C748   1.480       .  S
C644        O648   1.263       .  A
C649        C650   1.403       .  A
C649        C654   1.414       .  A
C650        C651   1.401       .  A
C650        H659   1.084       .  S
C651        C652   1.416       .  A
C651        S655   1.799       .  S
C652        C653   1.405       .  A
C653        C654   1.397       .  A
C653        H660   1.084       .  S
C654        S656   1.804       .  S
S655        H658   1.407       .  S
S656        H657   1.407       .  S
C661        C662   1.403       .  A
C661        C930   1.412       .  A
C662        C663   1.399       .  A
C662        H671   1.084       .  S
C663        C928   1.413       .  A
C663        S667   1.802       .  S
C664        C927   1.413   1_554  A
C664        C665   1.404       .  A
C665        C666   1.398       .  A
C665        H672   1.084       .  S
C666        C925   1.412   1_554  A
C666        S668   1.803       .  S
S667        H934   1.405       .  S
S668        H933   1.406   1_554  S
H669        S932   1.406       .  S
H670        S931   1.405       .  S
C673        C674   1.404       .  A
C673        C678   1.413       .  A
C674        C675   1.402       .  A
C674        H683   1.084       .  S
C675        C676   1.416       .  A
C675        S679   1.802       .  S
C676        C677   1.404       .  A
C677        C678   1.400       .  A
C677        H684   1.084       .  S
C678        S680   1.803       .  S
S679        H682   1.408       .  S
S680        H681   1.406       .  S
C685        C686   1.403       .  A
C685        C690   1.415       .  A
C686        C687   1.398       .  A
C686        H695   1.084       .  S
C687        C688   1.413       .  A
C687        S691   1.804       .  S
C688        C689   1.403       .  A
C689        C690   1.400       .  A
C689        H696   1.084       .  S
C690        S692   1.805       .  S
S691        H694   1.407       .  S
S692        H693   1.406       .  S
C697        C698   1.404       .  A
C697        C702   1.415       .  A
C698        C699   1.399       .  A
C698        H707   1.084       .  S
C699        C700   1.412       .  A
C699        S703   1.804       .  S
C700        C701   1.404       .  A
C701        C702   1.404       .  A
C701        H708   1.084       .  S
C702        S704   1.803       .  S
S703        H706   1.405       .  S
S704        H705   1.407       .  S
C709        C710   1.402       .  A
C709        C714   1.413       .  A
C710        C711   1.401       .  A
C710        H719   1.083       .  S
C711        C712   1.416       .  A
C711        S715   1.810       .  S
C712        C713   1.405       .  A
C713        C714   1.399       .  A
C713        H720   1.084       .  S
C714        S716   1.806       .  S
S715        H718   1.407       .  S
S716        H717   1.405       .  S
C721        C722   1.407       .  A
C721        C726   1.418       .  A
C722        C723   1.398       .  A
C722        H731   1.084       .  S
C723        C724   1.413       .  A
C723        S727   1.805       .  S
C724        C725   1.403       .  A
C725        C726   1.403       .  A
C725        H732   1.084       .  S
C726        S728   1.800       .  S
S727        H730   1.407       .  S
S728        H729   1.408       .  S
C733        C734   1.406       .  A
C733       C1002   1.417       .  A
C734        C735   1.395       .  A
C734        H743   1.084       .  S
C735       C1000   1.411   1_554  A
C735        S739   1.805       .  S
C736        C999   1.411       .  A
C736        C737   1.403       .  A
C737        C738   1.403       .  A
C737        H744   1.084       .  S
C738        C997   1.417       .  A
C738        S740   1.802       .  S
S739       H1006   1.407   1_554  S
S740       H1005   1.408       .  S
H741       S1004   1.408       .  S
H742       S1003   1.407       .  S
C745        C746   1.403       .  A
C745        C750   1.413       .  A
C746        C747   1.400       .  A
C746        H755   1.084       .  S
C747        C748   1.414       .  A
C747        S751   1.803       .  S
C748        C749   1.405       .  A
C749        C750   1.400       .  A
C749        H756   1.084       .  S
C750       S1016   1.806       .  S
S751        H754   1.407       .  S
S752       C1014   1.806   1_554  S
S752        H753   1.404       .  S
C757        C758   1.405       .  A
C757        C762   1.417       .  A
C758        C759   1.400       .  A
C758        H767   1.084       .  S
C759        C760   1.413       .  A
C759        S763   1.804       .  S
C760        C761   1.401       .  A
C761        C762   1.398       .  A
C761       H1032   1.084   1_554  S
C762        S764   1.803   1_554  S
S763        H766   1.405       .  S
S764        H765   1.408   1_556  S
H768       C1025   1.084       .  S
C769        C770   1.403       .  A
C769        C774   1.412       .  A
C770        C771   1.402       .  A
C770        H779   1.084       .  S
C771        C772   1.415       .  A
C771        S775   1.801       .  S
C772        C773   1.406       .  A
C773        C774   1.399       .  A
C773        H780   1.084       .  S
C774       S1040   1.804   1_554  S
S775        H778   1.407       .  S
S776       C1038   1.804       .  S
S776        H777   1.405       .  S
C781        C782   1.402       .  A
C781        C786   1.411       .  A
C782        C783   1.400       .  A
C782        H791   1.084       .  S
C783        C784   1.413       .  A
C783        S787   1.802       .  S
C784        C785   1.404       .  A
C785        C786   1.398       .  A
C785        H792   1.084       .  S
C786       S1052   1.804       .  S
S787        H790   1.407       .  S
S788       C1050   1.805   1_554  S
S788        H789   1.405       .  S
N793        C798   1.354   1_655  A
N793        C797   1.354       .  A
N793        H825   1.031   1_655  S
N794        C802   1.352       .  A
N795        C800   1.354       .  A
N795        C799   1.353   1_455  A
N795        H826   1.038       .  S
N796        C804   1.352       .  A
C797        C805   1.388       .  A
C797        C813   1.418       .  A
C798        C814   1.417       .  A
C798        C806   1.387       .  A
C799        C807   1.388       .  A
C799        C816   1.416       .  A
C800        C815   1.415       .  A
C800        C808   1.386       .  A
C801        C813   1.418       .  A
C801        C809   1.386       .  A
C802        C816   1.416       .  A
C802        C810   1.387       .  A
C803        C811   1.387       .  A
C803        C814   1.416       .  A
C804        C812   1.386       .  A
C804        C815   1.413       .  A
C805        C806   1.373   1_655  A
C805        H817   1.082       .  S
C806        H818   1.082       .  S
C807        C808   1.375   1_655  A
C807        H819   1.082       .  S
C808        H820   1.082       .  S
C809        H821   1.082       .  S
C810        H822   1.082       .  S
C811        H823   1.082       .  S
C812        H824   1.082       .  S
C813       C1009   1.489       .  S
C814       C1045   1.485       .  S
C815       C1033   1.489       .  S
C816       C1024   1.488       .  S
O827        C830   1.268       .  A
O827       Cd832   2.467       .  S
C828        C997   1.485       .  S
C828        O837   1.265       .  A
C828        O833   1.267       .  A
O829        C835   1.268       .  A
O829       Cd832   2.489       .  S
C830        C976   1.480       .  S
C830        O838   1.264       .  A
C831       C1036   1.485       .  S
C831        O836   1.268       .  A
C831        O834   1.265       .  A
Cd832       O839   2.447       .  S
Cd832       O838   2.436       .  S
Cd832       O837   2.432       .  S
Cd832       O833   2.482       .  S
Cd832       O836   2.491       .  S
Cd832       O834   2.448       .  S
C835        C985   1.491       .  S
C835        O839   1.264       .  A
O840        C843   1.267       .  A
O840       Cd845   2.488       .  S
C841       C1000   1.475       .  S
C841        O850   1.264       .  A
C841        O846   1.268       .  A
O842        C848   1.268       .  A
O842       Cd845   2.487       .  S
C843        C961   1.479       .  S
C843        O851   1.264       .  A
C844       C1048   1.474       .  S
C844        O849   1.268       .  A
C844        O847   1.264       .  A
Cd845       O852   2.432       .  S
Cd845       O851   2.456       .  S
Cd845       O850   2.430       .  S
Cd845       O846   2.484       .  S
Cd845       O849   2.473       .  S
Cd845       O847   2.446       .  S
C848        C988   1.480       .  S
C848        O852   1.264       .  A
N853        C858   1.352       .  A
N853        C857   1.354       .  A
N853        H885   1.039       .  S
N854        C862   1.352       .  A
N855        C860   1.353       .  A
N855        C859   1.351       .  A
N855        H886   1.039       .  S
N856        C864   1.353       .  A
C857        C865   1.387       .  A
C857        C873   1.416       .  A
C858        C874   1.415       .  A
C858        C866   1.387       .  A
C859        C867   1.387       .  A
C859        C876   1.415       .  A
C860        C875   1.413       .  A
C860        C868   1.386       .  A
C861        C873   1.414       .  A
C861        C869   1.385   1_565  A
C862        C876   1.416       .  A
C862        C870   1.387       .  A
C863        C871   1.387       .  A
C863        C874   1.415       .  A
C864        C872   1.386       .  A
C864        C875   1.415       .  A
C865        C866   1.376       .  A
C865        H877   1.082       .  S
C866        H878   1.082       .  S
C867        C868   1.375       .  A
C867        H879   1.082       .  S
C868        H880   1.082       .  S
C869        H881   1.082   1_545  S
C870        H882   1.082       .  S
C871        H883   1.082       .  S
C872        H884   1.082       .  S
C873        C937   1.492       .  S
C874        C973   1.488       .  S
C875        C964   1.489       .  S
C876        C949   1.490       .  S
O887        C890   1.267       .  A
O887       Cd892   2.476       .  S
C888        C913   1.479       .  S
C888        O897   1.265       .  A
C888        O893   1.268       .  A
O889        C895   1.265       .  A
O889       Cd892   2.472       .  S
C890       C1021   1.482       .  S
C890        O898   1.263       .  A
C891        C928   1.475       .  S
C891        O896   1.267       .  A
C891        O894   1.264       .  A
Cd892       O899   2.474       .  S
Cd892       O898   2.447       .  S
Cd892       O897   2.432       .  S
Cd892       O893   2.471       .  S
Cd892       O896   2.476       .  S
Cd892       O894   2.438       .  S
C895        C940   1.483       .  S
C895        O899   1.265       .  A
O900        C903   1.267       .  A
O900       Cd905   2.474       .  S
C901        C925   1.472       .  S
C901        O910   1.263       .  A
C901        O906   1.266       .  A
O902        C908   1.267       .  A
O902       Cd905   2.484       .  S
C903        C952   1.475       .  S
C903        O911   1.264       .  A
C904        C916   1.485       .  S
C904        O909   1.264       .  A
C904        O907   1.266       .  A
Cd905       O912   2.451       .  S
Cd905       O911   2.441       .  S
Cd905       O910   2.441       .  S
Cd905       O906   2.476       .  S
Cd905       O909   2.448       .  S
Cd905       O907   2.482       .  S
C908       C1012   1.480       .  S
C908        O912   1.263       .  A
C913        C914   1.403       .  A
C913        C918   1.415       .  A
C914        C915   1.401       .  A
C914        H923   1.084       .  S
C915        C916   1.416       .  A
C915        S919   1.799       .  S
C916        C917   1.405       .  A
C917        C918   1.397       .  A
C917        H924   1.084       .  S
C918        S920   1.804       .  S
S919        H922   1.407       .  S
S920        H921   1.407       .  S
C925        C926   1.403       .  A
C926        C927   1.399       .  A
C926        H935   1.084       .  S
C927        S931   1.802       .  S
C928        C929   1.404       .  A
C929        C930   1.398       .  A
C929        H936   1.084       .  S
C930        S932   1.803       .  S
C937        C938   1.404       .  A
C937        C942   1.413       .  A
C938        C939   1.402       .  A
C938        H947   1.084       .  S
C939        C940   1.416       .  A
C939        S943   1.802       .  S
C940        C941   1.404       .  A
C941        C942   1.399       .  A
C941        H948   1.084       .  S
C942        S944   1.803       .  S
S943        H946   1.408       .  S
S944        H945   1.406       .  S
C949        C950   1.403       .  A
C949        C954   1.415       .  A
C950        C951   1.398       .  A
C950        H959   1.084       .  S
C951        C952   1.413       .  A
C951        S955   1.804       .  S
C952        C953   1.403       .  A
C953        C954   1.400       .  A
C953        H960   1.084       .  S
C954        S956   1.805       .  S
S955        H958   1.407       .  S
S956        H957   1.406       .  S
C961        C962   1.403       .  A
C961        C966   1.415       .  A
C962        C963   1.399       .  A
C962        H971   1.084       .  S
C963        C964   1.412       .  A
C963        S967   1.804       .  S
C964        C965   1.404       .  A
C965        C966   1.404       .  A
C965        H972   1.084       .  S
C966        S968   1.802       .  S
S967        H970   1.405       .  S
S968        H969   1.407       .  S
C973        C974   1.402       .  A
C973        C978   1.413       .  A
C974        C975   1.401       .  A
C974        H983   1.083       .  S
C975        C976   1.416       .  A
C975        S979   1.809       .  S
C976        C977   1.405       .  A
C977        C978   1.399       .  A
C977        H984   1.084       .  S
C978        S980   1.806       .  S
S979        H982   1.407       .  S
S980        H981   1.405       .  S
C985        C986   1.407       .  A
C985        C990   1.418       .  A
C986        C987   1.398       .  A
C986        H995   1.084       .  S
C987        C988   1.414       .  A
C987        S991   1.805       .  S
C988        C989   1.403       .  A
C989        C990   1.403       .  A
C989        H996   1.084       .  S
C990        S992   1.800       .  S
S991        H994   1.407       .  S
S992        H993   1.408       .  S
C997        C998   1.406       .  A
C998        C999   1.395       .  A
C998       H1007   1.084       .  S
C999       S1003   1.805       .  S
C1000      C1001   1.403       .  A
C1001      C1002   1.403   1_556  A
C1001      H1008   1.084       .  S
C1002      S1004   1.802       .  S
C1009      C1010   1.403       .  A
C1009      C1014   1.413       .  A
C1010      C1011   1.401       .  A
C1010      H1019   1.084       .  S
C1011      C1012   1.414       .  A
C1011      S1015   1.803       .  S
C1012      C1013   1.405       .  A
C1013      C1014   1.400       .  A
C1013      H1020   1.084       .  S
S1015      H1018   1.407       .  S
S1016      H1017   1.403       .  S
C1021      C1022   1.405       .  A
C1021      C1026   1.417       .  A
C1022      C1023   1.400       .  A
C1022      H1031   1.084       .  S
C1023      C1024   1.413       .  A
C1023      S1027   1.804       .  S
C1024      C1025   1.401       .  A
C1025      C1026   1.398       .  A
C1026      S1028   1.803       .  S
S1027      H1030   1.405       .  S
S1028      H1029   1.408       .  S
C1033      C1034   1.403       .  A
C1033      C1038   1.412       .  A
C1034      C1035   1.402       .  A
C1034      H1043   1.084       .  S
C1035      C1036   1.415       .  A
C1035      S1039   1.801       .  S
C1036      C1037   1.406       .  A
C1037      C1038   1.399       .  A
C1037      H1044   1.084       .  S
S1039      H1042   1.407       .  S
S1040      H1041   1.405       .  S
C1045      C1046   1.402       .  A
C1045      C1050   1.411       .  A
C1046      C1047   1.400       .  A
C1046      H1055   1.084       .  S
C1047      C1048   1.413       .  A
C1047      S1051   1.802       .  S
C1048      C1049   1.404       .  A
C1049      C1050   1.398       .  A
C1049      H1056   1.084       .  S
S1051      H1054   1.407       .  S
S1052      H1053   1.405       .  S
