geometry optimzed in LAMMPS
_audit_creation_date              2020-11-30 
_audit_creation_method            'lammps2cif' 
_symmetry_space_group_name_H-M    'P1' 
_symmetry_Int_Tables_number       1 
_symmetry_cell_setting            triclinic 
loop_ 
_symmetry_equiv_pos_as_xyz 
  x,y,z 
_cell_length_a                    43.79764798 
_cell_length_b                    44.06429474109214 
_cell_length_c                    44.24416608827868 
_cell_angle_alpha                 89.89512045240157 
_cell_angle_beta                  91.3604511818177 
_cell_angle_gamma                 89.67081503392974 
loop_ 
_atom_site_label 
_atom_site_type_symbol 
_atom_site_fract_x 
_atom_site_fract_y 
_atom_site_fract_z 
_atom_site_charge 
In1        In  0.62466220  0.47342582  0.01948814     1.36900
C2          C  0.65065933  0.48034835  0.07334030     0.77500
O3          O  0.60694481  0.52021255  0.02603358    -0.61000
O4          O  0.57498666  0.48411595  0.02376202    -0.51900
C5          C  0.63177851  0.48175679  0.96087716     0.70100
O6          O  0.65316251  0.48765259  0.97983606    -0.46800
C7          C  0.62667618  0.41422475  0.01829721     0.74800
O8          O  0.66056736  0.49454829  0.05060992    -0.58600
O9          O  0.60381649  0.42912090  0.02717666    -0.48700
O10         O  0.62916420  0.46226064  0.06776021    -0.55100
C11         C  0.57928000  0.51231900  0.02646265     0.85000
O12         O  0.60745811  0.47220331  0.97206730    -0.56900
O13         O  0.64930145  0.42977579  0.01026484    -0.60200
In14       In  0.44710196  0.65001456  0.01000705     1.36900
C15         C  0.46127368  0.65829282  0.95311841     0.77500
O16         O  0.49414489  0.63368178  0.01905883    -0.61000
O17         O  0.45854103  0.60081197  0.01666939    -0.51900
C18         C  0.45030548  0.66763865  0.06680095     0.70100
O19         O  0.43326736  0.64662012  0.05720085    -0.46800
C20         C  0.38857147  0.65655216  0.00078787     0.74800
O21         O  0.46316114  0.68001902  0.97196723    -0.58600
O22         O  0.40132897  0.63109321  0.00576719    -0.48700
O23         O  0.45265799  0.63327587  0.96373552    -0.55100
C24         C  0.48678778  0.60602450  0.02083351     0.85000
O25         O  0.46473177  0.68165230  0.04643823    -0.56900
O26         O  0.40592903  0.67938359  0.00060389    -0.60200
In27       In  0.49511414  0.33823110  0.98512328     1.36900
C28         C  0.48980055  0.34020790  0.04471954     0.77500
O29         O  0.53692858  0.31083023  0.99686388    -0.61000
O30         O  0.54070058  0.35602726  0.97869381    -0.51900
C31         C  0.48621852  0.31630977  0.93065354     0.70100
O32         O  0.47369750  0.30385440  0.95320253    -0.46800
C33         C  0.45393509  0.38076574  0.97745797     0.74800
O34         O  0.48220823  0.31653335  0.02976810    -0.58600
O35         O  0.48222259  0.38614537  0.97560732    -0.48700
O36         O  0.49927043  0.36183348  0.02875776    -0.55100
C37         C  0.55398430  0.33276324  0.98971180     0.85000
O38         O  0.50462067  0.33738089  0.93683646    -0.56900
O39         O  0.44706338  0.35328239  0.98195940    -0.60200
In40       In  0.32524360  0.52041611  0.99173257     1.36900
C41         C  0.30702066  0.51010290  0.93598459     0.77500
O42         O  0.29441836  0.56088972  0.99358662    -0.61000
O43         O  0.34216847  0.56593616  0.98380187    -0.51900
C44         C  0.32313726  0.51925357  0.05133155     0.70100
O45         O  0.30158411  0.50846215  0.03478351    -0.46800
C46         C  0.36555953  0.47685530  0.98888862     0.74800
O47         O  0.29069795  0.50170709  0.95796020    -0.58600
O48         O  0.37306358  0.50455726  0.98683374    -0.48700
O49         O  0.33125182  0.52401892  0.94300825    -0.55100
C50         C  0.31642626  0.57841635  0.98789886     0.85000
O51         O  0.34499602  0.53056856  0.03697146    -0.56900
O52         O  0.33752761  0.47198743  0.99321278    -0.60200
In53       In  0.44107031  0.99516377  0.65067623     1.36900
C54         C  0.44351286  0.05481269  0.65417410     0.77500
O55         O  0.49027625  0.99776330  0.64139240    -0.61000
O56         O  0.45879767  0.99229145  0.60408972    -0.51900
C57         C  0.45302411  0.93997047  0.66979897     0.70100
O58         O  0.45765741  0.96257155  0.68720567    -0.46800
C59         C  0.38163353  0.99202796  0.65097894     0.74800
O60         O  0.45226137  0.03824469  0.67645788    -0.58600
O61         O  0.39723966  0.98608517  0.62798498    -0.48700
O62         O  0.43339069  0.04041085  0.63145604    -0.55100
C63         C  0.48631337  0.99556973  0.61305137     0.85000
O64         O  0.44158473  0.94602962  0.64407172    -0.56900
O65         O  0.39661187  0.99897712  0.67479361    -0.60200
In66       In  0.62818744  0.00604645  0.48944570     1.36900
C67         C  0.63730407  0.94731768  0.49487936     0.77500
O68         O  0.61145515  0.00501337  0.53637241    -0.61000
O69         O  0.57900626  0.00464410  0.49938413    -0.51900
C70         C  0.63937396  0.06357798  0.49762790     0.70100
O71         O  0.65760990  0.04353176  0.50860093    -0.46800
C72         C  0.63802153  0.00829923  0.43188645     0.74800
O73         O  0.65629872  0.96608894  0.50646419    -0.58600
O74         O  0.61164113  0.00974882  0.44293960    -0.48700
O75         O  0.61529261  0.95918435  0.48006902    -0.55100
C76         C  0.58370507  0.00366292  0.52773406     0.85000
O77         O  0.61639456  0.05380628  0.48304044    -0.56900
O78         O  0.66027296  0.00564782  0.45058656    -0.60200
In79       In  0.50681398  0.99941693  0.34646813     1.36900
C80         C  0.50146829  0.94070740  0.33649469     0.77500
O81         O  0.55172460  0.00086016  0.32295813    -0.61000
O82         O  0.54996708  0.00375494  0.37142023    -0.51900
C83         C  0.49727384  0.05599748  0.32987555     0.70100
O84         O  0.49553699  0.03480353  0.31038851    -0.46800
C85         C  0.46316785  0.99929222  0.38643115     0.74800
O86         O  0.48875518  0.95985757  0.31858573    -0.58600
O87         O  0.49117972  0.00024346  0.39420888    -0.48700
O88         O  0.51784080  0.95207357  0.35731806    -0.55100
C89         C  0.56601343  0.00363352  0.34801076     0.85000
O90         O  0.50423760  0.04782108  0.35645617    -0.56900
O91         O  0.45805120  0.99816777  0.35820792    -0.60200
In92       In  0.32036123  0.00241674  0.51042922     1.36900
C93         C  0.30418268  0.05901770  0.49984178     0.77500
O94         O  0.28779189  0.99682463  0.54874167    -0.61000
O95         O  0.33529012  0.00613462  0.55769791    -0.51900
C96         C  0.31631930  0.94323375  0.50435266     0.70100
O97         O  0.29530298  0.96056515  0.49353560    -0.46800
C98         C  0.36648398  0.00407422  0.47361857     0.74800
O99         O  0.28918342  0.03732654  0.48773096    -0.58600
O100        O  0.37022419  0.00638305  0.50202243    -0.48700
O101        O  0.32571661  0.05108438  0.51761878    -0.55100
C102        C  0.30919178  0.00071213  0.56812476     0.85000
O103        O  0.33820328  0.95674696  0.51756327    -0.56900
O104        O  0.33895187  0.00175935  0.46454931    -0.60200
In105      In  0.96839181  0.46601581  0.64711783     1.36900
C106        C  0.91817717  0.47921599  0.67682414     0.77500
O107        O  0.95242773  0.50708289  0.62199210    -0.61000
O108        O  0.96313312  0.46761080  0.59647961    -0.51900
C109        C  0.02733875  0.47989090  0.65294078     0.70100
O110        O  0.01091813  0.47679204  0.67597216    -0.46800
C111        C  0.97079334  0.40651752  0.64816623     0.74800
O112        O  0.94099747  0.49675120  0.67775404    -0.58600
O113        O  0.95578545  0.42149312  0.62845280    -0.48700
O114        O  0.92289912  0.45423209  0.66407527    -0.55100
C115        C  0.95459055  0.49502877  0.59628437     0.85000
O116        O  0.01323034  0.47693205  0.62808498    -0.56900
O117        O  0.98429241  0.42205367  0.66833031    -0.60200
In118      In  0.96493744  0.64025357  0.48258033     1.36900
C119        C  0.02413826  0.64834151  0.49401039     0.77500
O120        O  0.95445622  0.61213243  0.52217186    -0.61000
O121        O  0.96323851  0.58918985  0.48075051    -0.51900
C122        C  0.91197871  0.66170486  0.50012090     0.70100
O123        O  0.93570968  0.66371078  0.51694611    -0.46800
C124        C  0.96215080  0.65129616  0.42451428     0.74800
O125        O  0.00508255  0.66992440  0.49673322    -0.58600
O126        O  0.95264684  0.62701572  0.43622196    -0.48700
O127        O  0.01261377  0.62327821  0.48657252    -0.55100
C128        C  0.95652727  0.58725377  0.50835272     0.85000
O129        O  0.91653061  0.65292906  0.47359440    -0.56900
O130        O  0.97307442  0.67065818  0.44277851    -0.60200
In131      In  0.97966205  0.52278918  0.34284445     1.36900
C132        C  0.03508028  0.51324040  0.32338542     0.77500
O133        O  0.97025832  0.56679843  0.31856377    -0.61000
O134        O  0.98800598  0.56677189  0.36424119    -0.51900
C135        C  0.92001537  0.51625316  0.34453432     0.70100
O136        O  0.93427725  0.51170077  0.32007361    -0.46800
C137        C  0.98241311  0.47762427  0.38073829     0.74800
O138        O  0.01199138  0.50846563  0.30595801    -0.58600
O139        O  0.98621717  0.50497223  0.38886120    -0.48700
O140        O  0.02926363  0.52368811  0.34913362    -0.55100
C141        C  0.97829543  0.58197367  0.34166402     0.85000
O142        O  0.93625284  0.52493682  0.36680928    -0.56900
O143        O  0.97908598  0.47335710  0.35248065    -0.60200
In144      In  0.97745751  0.33829340  0.50911889     1.36900
C145        C  0.91800121  0.33054818  0.50495600     0.77500
O146        O  0.98000300  0.30841627  0.55040288    -0.61000
O147        O  0.98116023  0.35704949  0.55449802    -0.51900
C148        C  0.03557816  0.33066848  0.49858763     0.70100
O149        O  0.01635724  0.31019651  0.49098263    -0.46800
C150        C  0.97631125  0.37968286  0.46697111     0.74800
O151        O  0.93612975  0.30898637  0.49805550    -0.58600
O152        O  0.97654954  0.38600532  0.49495030    -0.48700
O153        O  0.93058115  0.35473770  0.51380985    -0.55100
C154        C  0.98138432  0.33143753  0.56750182     0.85000
O155        O  0.02494837  0.35313368  0.51260122    -0.56900
O156        O  0.97563680  0.35159426  0.46062050    -0.60200
C157        C  0.73532035  0.49468716  0.68890652     0.86400
C158        C  0.73143574  0.52381202  0.66968611    -0.53900
C159        C  0.75226303  0.52677117  0.64747639     0.09300
C160        C  0.77562655  0.50061203  0.64643945     0.20200
C161        C  0.73530234  0.46874482  0.66548589    -0.54600
C162        C  0.75629437  0.47155130  0.64300896     0.09400
C163        C  0.76874242  0.49664584  0.70069386    -0.54100
C164        C  0.78962868  0.49899007  0.67850967     0.10000
H165        H  0.71340821  0.54044173  0.67287112     0.14500
H166        H  0.79339032  0.50354607  0.62933652     0.00200
H167        H  0.71944082  0.44995415  0.66655136     0.14800
H168        H  0.77601647  0.49698579  0.72419182     0.14600
C169        C  0.63517507  0.48944153  0.77790481     0.86400
C170        C  0.61488625  0.46140392  0.77407668    -0.53900
C171        C  0.59099046  0.45990446  0.79337184     0.09300
C172        C  0.58978797  0.48695741  0.81543836     0.20200
C173        C  0.61289681  0.51673264  0.77582628    -0.54600
C174        C  0.58866308  0.51549786  0.79497492     0.09400
C175        C  0.64521080  0.48922686  0.81155471    -0.54100
C176        C  0.62169697  0.48778486  0.83109005     0.10000
H177        H  0.61873511  0.44446216  0.75674929     0.14500
H178        H  0.57061608  0.48522910  0.83110824     0.00200
H179        H  0.61625232  0.53567407  0.76057406     0.14800
H180        H  0.66862649  0.49099678  0.81981118     0.14600
C181        C  0.47296321  0.75752860  0.67643086     0.86400
C182        C  0.44467679  0.75481715  0.65489730    -0.53900
C183        C  0.44282842  0.77656072  0.63278523     0.09300
C184        C  0.46963529  0.79908500  0.63404115     0.20200
C185        C  0.49975660  0.75702696  0.65434909    -0.54600
C186        C  0.49820599  0.77882455  0.63230061     0.09400
C187        C  0.47163743  0.79010188  0.68850052    -0.54100
C188        C  0.46984862  0.81180923  0.66653334     0.10000
H189        H  0.42845814  0.73632518  0.65590764     0.14500
H190        H  0.46816538  0.81679687  0.61615051     0.00200
H191        H  0.51771661  0.74003120  0.65487505     0.14800
H192        H  0.47199140  0.79552152  0.71244552     0.14600
C193        C  0.47247482  0.66061889  0.77008555     0.86400
C194        C  0.50014025  0.63859873  0.76990128    -0.53900
C195        C  0.49853595  0.61484912  0.78995428     0.09300
C196        C  0.46987906  0.61653121  0.80968722     0.20200
C197        C  0.44510811  0.63914651  0.76544196    -0.54600
C198        C  0.44315563  0.61657735  0.78645725     0.09400
C199        C  0.47102462  0.67146761  0.80287325    -0.54100
C200        C  0.46981791  0.64872173  0.82378102     0.10000
H201        H  0.51882248  0.64084268  0.75448996     0.14500
H202        H  0.46839204  0.59785461  0.82641614     0.00200
H203        H  0.42902739  0.64097012  0.74647788     0.14800
H204        H  0.47184247  0.69530874  0.80898617     0.14600
C205        C  0.73193840  0.66648601  0.52981311     0.86400
C206        C  0.72805300  0.64724340  0.50084386    -0.53900
C207        C  0.74749755  0.62293166  0.49935176     0.09300
C208        C  0.76912383  0.61993335  0.52720103     0.20200
C209        C  0.72797681  0.64307872  0.55535106    -0.54600
C210        C  0.74775543  0.61917274  0.55438573     0.09400
C211        C  0.76576359  0.67494585  0.53090662    -0.54100
C212        C  0.78535083  0.65085864  0.52917062     0.10000
H213        H  0.71177073  0.65275296  0.48276674     0.14500
H214        H  0.78480326  0.60010950  0.52604719     0.00200
H215        H  0.71049330  0.64421398  0.57222702     0.14800
H216        H  0.77354298  0.69831467  0.53147489     0.14600
C217        C  0.64110314  0.76488365  0.52288140     0.86400
C218        C  0.61881789  0.76581544  0.54932210    -0.53900
C219        C  0.59485629  0.78536534  0.54509577     0.09300
C220        C  0.59539274  0.80257056  0.51478920     0.20200
C221        C  0.61995440  0.75721116  0.49558847    -0.54600
C222        C  0.59620382  0.77712905  0.49083791     0.09400
C223        C  0.65078275  0.79792126  0.51821595    -0.54100
C224        C  0.62705916  0.81767212  0.51371481     0.10000
H225        H  0.61989558  0.75073187  0.56868785     0.14500
H226        H  0.57625673  0.81897967  0.51172345     0.00200
H227        H  0.62303074  0.73687863  0.48222853     0.14800
H228        H  0.67449825  0.80497086  0.51789037     0.14600
C229        C  0.48569743  0.23981073  0.32101390     0.86400
C230        C  0.48850209  0.20688998  0.30996511    -0.53900
C231        C  0.48783385  0.18563236  0.33250856     0.09300
C232        C  0.48449639  0.19931277  0.36431741     0.20200
C233        C  0.45626894  0.24042190  0.33969997    -0.54600
C234        C  0.45562496  0.21911356  0.36201041     0.09400
C235        C  0.51107635  0.24342741  0.34545617    -0.54100
C236        C  0.51097368  0.22198584  0.36785319     0.10000
H237        H  0.48980786  0.20100004  0.28621532     0.14500
H238        H  0.48355068  0.18236828  0.38285598     0.00200
H239        H  0.43795864  0.25691608  0.33669185     0.14800
H240        H  0.52731989  0.26190641  0.34561429     0.14600
C241        C  0.48509581  0.33816665  0.22924232     0.86400
C242        C  0.51359920  0.35857195  0.23167486    -0.53900
C243        C  0.51308609  0.38260687  0.21221427     0.09300
C244        C  0.48409131  0.38441717  0.19197432     0.20200
C245        C  0.45869779  0.36082921  0.23409362    -0.54600
C246        C  0.45779362  0.38479488  0.21447885     0.09400
C247        C  0.48269301  0.32927021  0.19569897    -0.54100
C248        C  0.48209362  0.35326865  0.17593460     0.10000
H249        H  0.53169369  0.35586325  0.24865397     0.14500
H250        H  0.48376365  0.40429023  0.17650478     0.00200
H251        H  0.44221398  0.35838082  0.25180129     0.14800
H252        H  0.48298772  0.30577872  0.18839561     0.14600
C253        C  0.21973627  0.50734083  0.32260301     0.86400
C254        C  0.21969091  0.53457166  0.34472843    -0.53900
C255        C  0.19703589  0.53388568  0.36553301     0.09300
C256        C  0.17642165  0.50587042  0.36242710     0.20200
C257        C  0.22137627  0.47975946  0.34418613    -0.54600
C258        C  0.19846193  0.47879438  0.36450596     0.09400
C259        C  0.18724649  0.50680119  0.30860844    -0.54100
C260        C  0.16461577  0.50607038  0.32934513     0.10000
H261        H  0.23697426  0.55208917  0.34531316     0.14500
H262        H  0.15817878  0.50484606  0.37940657     0.00200
H263        H  0.23948555  0.46284338  0.34412519     0.14800
H264        H  0.18262846  0.50653720  0.28438875     0.14600
C265        C  0.32122782  0.50856736  0.23527707     0.86400
C266        C  0.33971227  0.47852711  0.23476508    -0.53900
C267        C  0.36328128  0.47832394  0.21496460     0.09300
C268        C  0.36647628  0.50840772  0.19755791     0.20200
C269        C  0.34612098  0.53227811  0.24233554    -0.54600
C270        C  0.36946503  0.53263804  0.22242622     0.09400
C271        C  0.31143635  0.51418726  0.20213397    -0.54100
C272        C  0.33495711  0.51417721  0.18238442     0.10000
H273        H  0.33581498  0.45959266  0.24987349     0.14500
H274        H  0.38551374  0.50852913  0.18145278     0.00200
H275        H  0.34589786  0.54719627  0.26180588     0.14800
H276        H  0.28779699  0.51761165  0.19489292     0.14600
C277        C  0.21853695  0.33653552  0.47724510     0.86400
C278        C  0.21921994  0.36061034  0.45183269    -0.53900
C279        C  0.19841732  0.38346092  0.45462783     0.09300
C280        C  0.17852286  0.38041945  0.48271003     0.20200
C281        C  0.22274797  0.35550868  0.50627217    -0.54600
C282        C  0.20168377  0.37824643  0.50943869     0.09400
C283        C  0.18531679  0.32574689  0.47763341    -0.54100
C284        C  0.16422852  0.34846545  0.48039251     0.10000
H285        H  0.23552420  0.36093738  0.43379508     0.14500
H286        H  0.16165383  0.39911762  0.48505110     0.00200
H287        H  0.24060073  0.35098866  0.52310547     0.14800
H288        H  0.17904717  0.30197744  0.47602373     0.14600
C289        C  0.31116285  0.23850017  0.46888016     0.86400
C290        C  0.33150120  0.23766446  0.49790864    -0.53900
C291        C  0.35243710  0.21441736  0.49933470     0.09300
C292        C  0.35111788  0.19413280  0.47096205     0.20200
C293        C  0.33491773  0.23979568  0.44379207    -0.54600
C294        C  0.35542977  0.21641106  0.44458250     0.09400
C295        C  0.29698787  0.20682135  0.46690224    -0.54100
C296        C  0.31767710  0.18371259  0.46822405     0.10000
H297        H  0.32999873  0.25467232  0.51554556     0.14500
H298        H  0.36731342  0.17474139  0.47137698     0.00200
H299        H  0.33752681  0.25869167  0.42839595     0.14800
H300        H  0.27251174  0.20298098  0.46717503     0.14600
C301        C  0.30486300  0.49676557  0.75409345     0.86400
C302        C  0.32710714  0.52374943  0.75277845    -0.53900
C303        C  0.34921788  0.52387129  0.77512106     0.09300
C304        C  0.34755133  0.49634289  0.79658364     0.20200
C305        C  0.32656018  0.46899040  0.75332239    -0.54600
C306        C  0.34898062  0.46865390  0.77543167     0.09400
C307        C  0.29258411  0.49718145  0.78626079    -0.54100
C308        C  0.31473220  0.49668284  0.80843142     0.10000
H309        H  0.32609118  0.54099459  0.73531926     0.14500
H310        H  0.36526700  0.49621456  0.81494923     0.00200
H311        H  0.32514255  0.45157101  0.73604139     0.14800
H312        H  0.26838765  0.49774589  0.79109143     0.14600
C313        C  0.21258251  0.49223623  0.65375672     0.86400
C314        C  0.21637203  0.46484284  0.63259933    -0.53900
C315        C  0.19532482  0.46348741  0.60938401     0.09300
C316        C  0.17282048  0.49058057  0.60873137     0.20200
C317        C  0.21421263  0.51951239  0.63181881    -0.54600
C318        C  0.19344471  0.51888354  0.60817758     0.09400
C319        C  0.17924040  0.49152972  0.66351155    -0.54100
C320        C  0.15820411  0.49100988  0.64020484     0.10000
H321        H  0.23480428  0.44839896  0.63504649     0.14500
H322        H  0.15590889  0.48946518  0.58981574     0.00200
H323        H  0.23107668  0.53735977  0.63395612     0.14800
H324        H  0.17292130  0.49214269  0.68708890     0.14600
C325        C  0.30934719  0.75786870  0.50195466     0.86400
C326        C  0.33133808  0.75440716  0.47550770    -0.53900
C327        C  0.35566907  0.77374518  0.47642626     0.09300
C328        C  0.35614731  0.79472293  0.50413729     0.20200
C329        C  0.32964088  0.75490462  0.53086515    -0.54600
C330        C  0.35460797  0.77336483  0.53177465     0.09400
C331        C  0.30058530  0.79207848  0.50143771    -0.54100
C332        C  0.32503953  0.81133862  0.50270067     0.10000
H333        H  0.32739981  0.73847280  0.45715130     0.14500
H334        H  0.37603416  0.81023749  0.50489056     0.00200
H335        H  0.32481409  0.73920340  0.54904982     0.14800
H336        H  0.27744744  0.80084727  0.50143338     0.14600
C337        C  0.20996873  0.66472852  0.49498605     0.86400
C338        C  0.21296083  0.64189209  0.52158994    -0.53900
C339        C  0.19351663  0.61763620  0.51972577     0.09300
C340        C  0.17288085  0.61826581  0.49110690     0.20200
C341        C  0.21384979  0.64505119  0.46660370    -0.54600
C342        C  0.19473501  0.62070880  0.46462223     0.09400
C343        C  0.17553576  0.67325145  0.49498975    -0.54100
C344        C  0.15621055  0.64898662  0.49245968     0.10000
H345        H  0.22941140  0.64457814  0.54010032     0.14500
H346        H  0.15718146  0.59863725  0.48914104     0.00200
H347        H  0.23064263  0.64988795  0.44960041     0.14800
H348        H  0.16668076  0.69562958  0.49971387     0.14600
C349        C  0.48066077  0.75878132  0.34520032     0.86400
C350        C  0.48358826  0.79125120  0.33347488    -0.53900
C351        C  0.48230760  0.81284601  0.35524601     0.09300
C352        C  0.47801528  0.80015463  0.38742963     0.20200
C353        C  0.50523945  0.75546712  0.37052691    -0.54600
C354        C  0.50439127  0.77709512  0.39263476     0.09400
C355        C  0.45092292  0.75833002  0.36299802    -0.54100
C356        C  0.44920303  0.77999076  0.38511455     0.10000
H357        H  0.48730096  0.79668242  0.30988377     0.14500
H358        H  0.47711510  0.81835982  0.40457233     0.00200
H359        H  0.52088806  0.73633898  0.37199234     0.14800
H360        H  0.43354521  0.74110105  0.35982250     0.14600
C361        C  0.49201250  0.66872724  0.24655507     0.86400
C362        C  0.46635501  0.64540068  0.25073542    -0.53900
C363        C  0.46358002  0.62466928  0.22807144     0.09300
C364        C  0.48720974  0.62851896  0.20325673     0.20200
C365        C  0.52058485  0.64831136  0.24309735    -0.54600
C366        C  0.51856555  0.62772068  0.21988804     0.09400
C367        C  0.48583561  0.68242391  0.21494637    -0.54100
C368        C  0.48305486  0.66142098  0.19253188     0.10000
H369        H  0.45142572  0.64540904  0.26999937     0.14500
H370        H  0.48449044  0.61196800  0.18453304     0.00200
H371        H  0.53935438  0.64722868  0.25928071     0.14800
H372        H  0.48233779  0.70653485  0.21092920     0.14600
C373        C  0.73580972  0.50733819  0.35666880     0.86400
C374        C  0.73439005  0.48040848  0.37894270    -0.53900
C375        C  0.75559278  0.48136145  0.40208543     0.09300
C376        C  0.77655891  0.50940533  0.40087954     0.20200
C377        C  0.73278529  0.53513029  0.37737544    -0.54600
C378        C  0.75423521  0.53674972  0.40020203     0.09400
C379        C  0.76882749  0.50751639  0.34619485    -0.54100
C380        C  0.79049408  0.50840705  0.36892722     0.10000
H381        H  0.71754506  0.46248521  0.37735637     0.14500
H382        H  0.79351667  0.51033203  0.41985099     0.00200
H383        H  0.71447293  0.55169739  0.37487831     0.14800
H384        H  0.77445339  0.50636396  0.32244894     0.14600
C385        C  0.64710188  0.50234674  0.25329974     0.86400
C386        C  0.62691859  0.53098522  0.24872892    -0.53900
C387        C  0.60769639  0.53019874  0.22378767     0.09300
C388        C  0.61066203  0.50055924  0.20567357     0.20200
C389        C  0.62328553  0.47660610  0.25398985    -0.54600
C390        C  0.60471340  0.47538972  0.22877732     0.09400
C391        C  0.66367486  0.49841924  0.22335557    -0.54100
C392        C  0.64465296  0.49770737  0.19866626     0.10000
H393        H  0.62652069  0.54963897  0.26468181     0.14500
H394        H  0.59607716  0.49929395  0.18492337     0.00200
H395        H  0.62098474  0.46090952  0.27271954     0.14800
H396        H  0.68833606  0.49665477  0.22181408     0.14600
C397        C  0.46551225  0.32903891  0.74973174     0.86400
C398        C  0.43843608  0.35166584  0.75031876    -0.53900
C399        C  0.43880760  0.37100731  0.77428311     0.09300
C400        C  0.46708360  0.36704922  0.79517744     0.20200
C401        C  0.49350500  0.35009981  0.75035594    -0.54600
C402        C  0.49451515  0.37020689  0.77403049     0.09400
C403        C  0.46614098  0.31365764  0.78092190    -0.54100
C404        C  0.46687665  0.33337802  0.80462974     0.10000
H405        H  0.42151273  0.35435780  0.73225922     0.14500
H406        H  0.46748187  0.38299049  0.81458590     0.00200
H407        H  0.51107932  0.34889284  0.73357089     0.14800
H408        H  0.46620518  0.28919283  0.78397954     0.14600
C409        C  0.46043012  0.23886811  0.64940656     0.86400
C410        C  0.48971611  0.24018390  0.63088873    -0.53900
C411        C  0.49203724  0.21802051  0.60969779     0.09300
C412        C  0.46467397  0.19636419  0.60842628     0.20200
C413        C  0.43474045  0.23968900  0.62447984    -0.54600
C414        C  0.43649309  0.21684291  0.60347635     0.09400
C415        C  0.45964308  0.20637600  0.66214530    -0.54100
C416        C  0.46169682  0.18418503  0.64079375     0.10000
H417        H  0.50678006  0.25784013  0.63351822     0.14500
H418        H  0.46699783  0.17808312  0.59139887     0.00200
H419        H  0.41784937  0.25753761  0.62195597     0.14800
H420        H  0.45599839  0.20148238  0.68584808     0.14600
C421        C  0.73334352  0.33996334  0.51613318     0.86400
C422        C  0.73466081  0.35873002  0.54556527    -0.53900
C423        C  0.75717204  0.38018039  0.54685732     0.09300
C424        C  0.77680607  0.38041530  0.51823610     0.20200
C425        C  0.73150465  0.36339354  0.49043507    -0.54600
C426        C  0.75413656  0.38447487  0.49135710     0.09400
C427        C  0.76588829  0.32639928  0.51470241    -0.54100
C428        C  0.78856546  0.34750214  0.51543345     0.10000
H429        H  0.71908590  0.35541987  0.56385767     0.14500
H430        H  0.79540465  0.39742986  0.51869946     0.00200
H431        H  0.71371057  0.36327617  0.47290478     0.14800
H432        H  0.77078585  0.30232228  0.51278543     0.14600
C433        C  0.63679583  0.24658570  0.50452371     0.86400
C434        C  0.61913532  0.24874808  0.47419228    -0.53900
C435        C  0.59677937  0.22752835  0.47027110     0.09300
C436        C  0.59471600  0.20522498  0.49695733     0.20200
C437        C  0.61195426  0.24690155  0.52885729    -0.54600
C438        C  0.58992042  0.22538231  0.52469060     0.09400
C439        C  0.64905450  0.21381303  0.50610821    -0.54100
C440        C  0.62718476  0.19237423  0.50160681     0.10000
H441        H  0.62419615  0.26570265  0.45722899     0.14500
H442        H  0.57697086  0.18749950  0.49397571     0.00200
H443        H  0.61194724  0.26179602  0.54832584     0.14800
H444        H  0.67284589  0.20792222  0.51055775     0.14600
C445        C  0.66154022  0.27105997  0.50708900    -0.00300
C446        C  0.65599010  0.29822179  0.52282731    -0.12200
C447        C  0.67791473  0.32122772  0.52494140     0.02000
C448        C  0.70745984  0.31661284  0.51318241    -0.00400
C449        C  0.71139552  0.29134426  0.49415833    -0.12100
C450        C  0.68876692  0.26925084  0.49046218     0.01800
H451        H  0.63377036  0.30270112  0.53201766     0.14800
H452        H  0.73189951  0.28918662  0.48110567     0.14800
C453        C  0.69368417  0.24586272  0.46821965     0.36500
C454        C  0.66801395  0.35012227  0.53666918     0.36400
N455        N  0.69755512  0.22722864  0.45029170    -0.43900
N456        N  0.65978089  0.37325487  0.54589087    -0.43900
C457        C  0.51730076  0.21728519  0.58805221    -0.00300
C458        C  0.51057536  0.22295277  0.55749839    -0.12200
C459        C  0.53369560  0.22437439  0.53631549     0.02000
C460        C  0.56452221  0.22133323  0.54589305    -0.00400
C461        C  0.57134802  0.21559122  0.57658872    -0.12100
C462        C  0.54798490  0.21331100  0.59762166     0.01800
H463        H  0.48730331  0.22773518  0.55030946     0.14800
H464        H  0.59496600  0.21294858  0.58410740     0.14800
C465        C  0.55586377  0.20694009  0.62886763     0.36500
C466        C  0.52483031  0.23040840  0.50528731     0.36400
N467        N  0.56192550  0.20181456  0.65396754    -0.43900
N468        N  0.51647974  0.23510437  0.48071984    -0.43900
C469        C  0.46435957  0.30575381  0.72369697    -0.00300
C470        C  0.43646363  0.29958383  0.70847937    -0.12200
C471        C  0.43407361  0.27851687  0.68489512     0.02000
C472        C  0.46028957  0.26264731  0.67505588    -0.00400
C473        C  0.48754912  0.26655490  0.69236173    -0.12100
C474        C  0.48976347  0.28742031  0.71628232     0.01800
H475        H  0.41547464  0.30974592  0.71596724     0.14800
H476        H  0.50741136  0.25276808  0.68748615     0.14800
C477        C  0.51820315  0.28855369  0.73343183     0.36500
C478        C  0.40351820  0.27248674  0.67396316     0.36400
N479        N  0.54100281  0.28945587  0.74716391    -0.43900
N480        N  0.37838435  0.26888533  0.66629003    -0.43900
C481        C  0.75742832  0.45711701  0.42566495    -0.00300
C482        C  0.76084001  0.42677273  0.41644523    -0.12200
C483        C  0.76046615  0.40284052  0.43744934     0.02000
C484        C  0.75633507  0.40902702  0.46837717    -0.00400
C485        C  0.75282573  0.43920460  0.47751928    -0.12100
C486        C  0.75366237  0.46318410  0.45670020     0.01800
H487        H  0.76367734  0.42176676  0.39267868     0.14800
H488        H  0.74801092  0.44406904  0.50084148     0.14800
C489        C  0.74883093  0.49340306  0.46804238     0.36500
C490        C  0.76423850  0.37216075  0.42672267     0.36400
N491        N  0.74487586  0.51707815  0.47852334    -0.43900
N492        N  0.76717165  0.34756880  0.41807969    -0.43900
C493        C  0.71291299  0.50651399  0.32978864    -0.00300
C494        C  0.70347428  0.47839061  0.31785873    -0.12200
C495        C  0.68350455  0.47660177  0.29268230     0.02000
C496        C  0.66987429  0.50325645  0.28028490    -0.00400
C497        C  0.68222274  0.53122813  0.28978740    -0.12100
C498        C  0.70444976  0.53289106  0.31306465     0.01800
H499        H  0.71319750  0.45752693  0.32688079     0.14800
H500        H  0.67619658  0.55186818  0.27769892     0.14800
C501        C  0.72030099  0.56134930  0.31692126     0.36500
C502        C  0.68021488  0.44741937  0.27822687     0.36400
N503        N  0.73337348  0.58397099  0.31966432    -0.43900
N504        N  0.67815434  0.42415832  0.26627385    -0.43900
C505        C  0.54279887  0.60420926  0.21450381    -0.00300
C506        C  0.53433582  0.57494900  0.20519969    -0.12200
C507        C  0.55511331  0.55064470  0.20622062     0.02000
C508        C  0.58553282  0.55541149  0.21671561    -0.00400
C509        C  0.59490410  0.58544455  0.22204216    -0.12100
C510        C  0.57415848  0.60973469  0.22017905     0.01800
H511        H  0.51124705  0.57053874  0.19765673     0.14800
H512        H  0.61867921  0.59002993  0.22761822     0.14800
C513        C  0.58614838  0.64012269  0.22159383     0.36500
C514        C  0.54364306  0.52139180  0.19700159     0.36400
N515        N  0.59617814  0.66435239  0.22183642    -0.43900
N516        N  0.53366524  0.49850917  0.18875229    -0.43900
C517        C  0.48341491  0.73564788  0.31947381    -0.00300
C518        C  0.51251583  0.72440046  0.31221386    -0.12200
C519        C  0.51683386  0.70394876  0.28848966     0.02000
C520        C  0.49134357  0.69328597  0.27128329    -0.00400
C521        C  0.46289406  0.70744819  0.27624088    -0.12100
C522        C  0.45891002  0.72877662  0.29927082     0.01800
H523        H  0.53263630  0.73276647  0.32411351     0.14800
H524        H  0.44345308  0.70193146  0.26166181     0.14800
C525        C  0.42981942  0.74426008  0.30033993     0.36500
C526        C  0.54810425  0.69774168  0.28117448     0.36400
N527        N  0.40654035  0.75677040  0.30105254    -0.43900
N528        N  0.57364444  0.69380407  0.27625061    -0.43900
C529        C  0.37906463  0.77511756  0.45244779    -0.00300
C530        C  0.38726596  0.80344201  0.44042586    -0.12200
C531        C  0.40970545  0.80573917  0.41828561     0.02000
C532        C  0.42467910  0.77934588  0.40803589    -0.00400
C533        C  0.41657139  0.75115139  0.42032228    -0.12100
C534        C  0.39404231  0.74880808  0.44208729     0.01800
H535        H  0.37588544  0.82382929  0.44814845     0.14800
H536        H  0.42844517  0.73074570  0.41339061     0.14800
C537        C  0.38832692  0.71926498  0.45480272     0.36500
C538        C  0.41651668  0.83530715  0.40617644     0.36400
N539        N  0.38403524  0.69548077  0.46490258    -0.43900
N540        N  0.42197321  0.85907977  0.39661465    -0.43900
C541        C  0.28312477  0.73425914  0.50017263    -0.00300
C542        C  0.25315141  0.74267956  0.49117387    -0.12200
C543        C  0.22922334  0.72144849  0.48873686     0.02000
C544        C  0.23425186  0.69039822  0.49655283    -0.00400
C545        C  0.26469836  0.68178021  0.50345304    -0.12100
C546        C  0.28867542  0.70281825  0.50511664     0.01800
H547        H  0.24820101  0.76574354  0.48432119     0.14800
H548        H  0.27006076  0.65800524  0.50727882     0.14800
C549        C  0.31888669  0.69098530  0.51187419     0.36500
C550        C  0.20101633  0.73262645  0.47540514     0.36400
N551        N  0.34293328  0.68131098  0.51770198    -0.43900
N552        N  0.17887968  0.74265942  0.46453802    -0.43900
C553        C  0.19163156  0.54376486  0.58494981    -0.00300
C554        C  0.19416570  0.57401312  0.59479573    -0.12200
C555        C  0.19401468  0.59833479  0.57427549     0.02000
C556        C  0.19235067  0.59276661  0.54281264    -0.00400
C557        C  0.18877141  0.56267545  0.53295752    -0.12100
C558        C  0.18791692  0.53838716  0.55352926     0.01800
H559        H  0.19567905  0.57877678  0.61882519     0.14800
H560        H  0.18701509  0.55795125  0.50893459     0.14800
C561        C  0.18320088  0.50844916  0.54132049     0.36500
C562        C  0.19397330  0.62874577  0.58634041     0.36400
N563        N  0.17853274  0.48481197  0.53093387    -0.43900
N564        N  0.19379892  0.65309163  0.59610421    -0.43900
C565        C  0.37239277  0.44383283  0.77773621    -0.00300
C566        C  0.36277890  0.41367670  0.77376524    -0.12200
C567        C  0.38378368  0.38959194  0.77357988     0.02000
C568        C  0.41534910  0.39532137  0.77757224    -0.00400
C569        C  0.42495405  0.42518640  0.78262253    -0.12100
C570        C  0.40398228  0.44939227  0.78242118     0.01800
H571        H  0.33864458  0.40887715  0.77067541     0.14800
H572        H  0.44917248  0.42984307  0.78524612     0.14800
C573        C  0.41624994  0.47958879  0.78482166     0.36500
C574        C  0.37225741  0.35916586  0.76959279     0.36400
N575        N  0.42721327  0.50334743  0.78675427    -0.43900
N576        N  0.36313162  0.33476553  0.76631704    -0.43900
C577        C  0.27906760  0.49643012  0.72975313    -0.00300
C578        C  0.26605558  0.46851613  0.72098939    -0.12200
C579        C  0.24372771  0.46671874  0.69777080     0.02000
C580        C  0.23502958  0.49307611  0.68110246    -0.00400
C581        C  0.24446134  0.52121807  0.69303826    -0.12100
C582        C  0.26517604  0.52310669  0.71763484     0.01800
H583        H  0.27274733  0.44789183  0.73282460     0.14800
H584        H  0.23457142  0.54206806  0.68416731     0.14800
C585        C  0.26922682  0.55251416  0.73143093     0.36500
C586        C  0.22909345  0.43777268  0.69296499     0.36400
N587        N  0.27211192  0.57611945  0.74253124    -0.43900
N588        N  0.21728864  0.41458493  0.68933332    -0.43900
C589        C  0.37390725  0.21049681  0.52603185    -0.00300
C590        C  0.36287961  0.21679761  0.55496911    -0.12200
C591        C  0.38233184  0.21716378  0.58057706     0.02000
C592        C  0.41407891  0.21275884  0.57758914    -0.00400
C593        C  0.42455552  0.20337274  0.54929987    -0.12100
C594        C  0.40499138  0.20188401  0.52377231     0.01800
H595        H  0.33866776  0.22091853  0.55774320     0.14800
H596        H  0.44821152  0.19715108  0.54678309     0.14800
C597        C  0.41814063  0.19155112  0.49602090     0.36500
C598        C  0.36844104  0.21852039  0.60973307     0.36400
N599        N  0.42942269  0.18256831  0.47437168    -0.43900
N600        N  0.35645913  0.21838332  0.63274424    -0.43900
C601        C  0.20087158  0.39873283  0.53625480    -0.00300
C602        C  0.17261138  0.40502397  0.54934997    -0.12200
C603        C  0.17040319  0.42500475  0.57390185     0.02000
C604        C  0.19670057  0.43994493  0.58523090    -0.00400
C605        C  0.22505860  0.43305703  0.57263376    -0.12100
C606        C  0.22743952  0.41250380  0.54867746     0.01800
H607        H  0.15219618  0.39391052  0.54065868     0.14800
H608        H  0.24544020  0.44447829  0.58096135     0.14800
C609        C  0.25721574  0.40769188  0.53610006     0.36500
C610        C  0.14117014  0.42868405  0.58786850     0.36400
N611        N  0.28107518  0.40389709  0.52601298    -0.43900
N612        N  0.11774998  0.43131401  0.59917871    -0.43900
C613        C  0.24124219  0.30996522  0.47453834    -0.00300
C614        C  0.25381444  0.30266089  0.44640367    -0.12200
C615        C  0.27539990  0.27932124  0.44341673     0.02000
C616        C  0.28639908  0.26332356  0.46934357    -0.00400
C617        C  0.27075986  0.26784238  0.49646671    -0.12100
C618        C  0.24816603  0.29021910  0.49911172     0.01800
H619        H  0.24573200  0.31392971  0.42600887     0.14800
H620        H  0.27584557  0.25336941  0.51580369     0.14800
C621        C  0.23182451  0.29141798  0.52707349     0.36500
C622        C  0.28309594  0.27081617  0.41303006     0.36400
N623        N  0.21875156  0.29217329  0.54949088    -0.43900
N624        N  0.28886782  0.26417474  0.38850783    -0.43900
C625        C  0.39420297  0.55560359  0.22428066    -0.00300
C626        C  0.38598139  0.58625995  0.22794849    -0.12200
C627        C  0.40810262  0.60907432  0.22887824     0.02000
C628        C  0.43928898  0.60131634  0.22713031    -0.00400
C629        C  0.44753018  0.57074099  0.22428357    -0.12100
C630        C  0.42545037  0.54796839  0.22217254     0.01800
H631        H  0.36205279  0.59252914  0.22904124     0.14800
H632        H  0.47133367  0.56443633  0.22443483     0.14800
C633        C  0.43601130  0.51715678  0.21855896     0.36500
C634        C  0.39816000  0.64031962  0.23041553     0.36400
N635        N  0.44561457  0.49289670  0.21532735    -0.43900
N636        N  0.39031470  0.66540481  0.23155245    -0.43900
C637        C  0.19555183  0.55594353  0.39111646    -0.00300
C638        C  0.22251911  0.56233272  0.40770702    -0.12200
C639        C  0.22268573  0.58296193  0.43179533     0.02000
C640        C  0.19550142  0.59811560  0.43959650    -0.00400
C641        C  0.16834757  0.59122384  0.42361101    -0.12100
C642        C  0.16811589  0.57036660  0.39958196     0.01800
H643        H  0.24354482  0.55071042  0.40215278     0.14800
H644        H  0.14729976  0.60255803  0.42963029     0.14800
C645        C  0.13957701  0.56505763  0.38353896     0.36500
C646        C  0.25076782  0.58702935  0.44903049     0.36400
N647        N  0.11645622  0.56100495  0.37103371    -0.43900
N648        N  0.27328284  0.59008499  0.46288237    -0.43900
C649        C  0.19634947  0.40874627  0.43234948    -0.00300
C650        C  0.18867762  0.40196337  0.40210423    -0.12200
C651        C  0.18833972  0.42465197  0.37982967     0.02000
C652        C  0.19628093  0.45461608  0.38760380    -0.00400
C653        C  0.20351569  0.46156490  0.41776612    -0.12100
C654        C  0.20392685  0.43890817  0.44005988     0.01800
H655        H  0.18286762  0.37885870  0.39592831     0.14800
H656        H  0.20997200  0.48457915  0.42369202     0.14800
C657        C  0.21483788  0.44700724  0.46987196     0.36500
C658        C  0.17899229  0.41692397  0.34933249     0.36400
N659        N  0.22436491  0.45455682  0.49323181    -0.43900
N660        N  0.17112261  0.41083940  0.32495297    -0.43900
C661        C  0.24473882  0.50769498  0.29850322    -0.00300
C662        C  0.25763372  0.53535631  0.28926309    -0.12200
C663        C  0.28105624  0.53640779  0.26810976     0.02000
C664        C  0.29388008  0.50914620  0.25671664    -0.00400
C665        C  0.27834492  0.48203925  0.26295199    -0.12100
C666        C  0.25375975  0.48120518  0.28272975     0.01800
H667        H  0.24862297  0.55663952  0.29743967     0.14800
H668        H  0.28461521  0.46128569  0.25154302     0.14800
C669        C  0.23760194  0.45288858  0.28505219     0.36500
C670        C  0.28988953  0.56599512  0.25739270     0.36400
N671        N  0.22493496  0.42998252  0.28644078    -0.43900
N672        N  0.29670485  0.58981045  0.24887747    -0.43900
C673        C  0.53595506  0.40716343  0.21466179    -0.00300
C674        C  0.53146732  0.43027077  0.23589799    -0.12200
C675        C  0.55360113  0.45269319  0.24083738     0.02000
C676        C  0.58071851  0.45216684  0.22427277    -0.00400
C677        C  0.58486800  0.42950478  0.20250161    -0.12100
C678        C  0.56281074  0.40693101  0.19772435     0.01800
H679        H  0.51070535  0.43062348  0.24879391     0.14800
H680        H  0.60556098  0.42924166  0.18951093     0.14800
C681        C  0.56839059  0.38358597  0.17567710     0.36500
C682        C  0.54743895  0.47677951  0.26195451     0.36400
N683        N  0.57294936  0.36493305  0.15794002    -0.43900
N684        N  0.54233607  0.49632008  0.27856235    -0.43900
C685        C  0.43367930  0.40890094  0.21505257    -0.00300
C686        C  0.42000022  0.41856319  0.18763110    -0.12200
C687        C  0.39677274  0.44069744  0.18697103     0.02000
C688        C  0.38643730  0.45336674  0.21423242    -0.00400
C689        C  0.40004915  0.44361573  0.24166011    -0.12100
C690        C  0.42377793  0.42212505  0.24228441     0.01800
H691        H  0.42727274  0.40855212  0.16659290     0.14800
H692        H  0.39307115  0.45391070  0.26266972     0.14800
C693        C  0.43887675  0.41577924  0.27099318     0.36500
C694        C  0.38363548  0.44943969  0.15801716     0.36400
N695        N  0.45102530  0.41088018  0.29401645    -0.43900
N696        N  0.37346924  0.45621742  0.13457172    -0.43900
C697        C  0.53316558  0.22259112  0.39402931    -0.00300
C698        C  0.54060919  0.25077546  0.40696079    -0.12200
C699        C  0.56167374  0.25307345  0.43110067     0.02000
C700        C  0.57567485  0.22660197  0.44332974    -0.00400
C701        C  0.56815793  0.19837316  0.43058150    -0.12100
C702        C  0.54740267  0.19614314  0.40602133     0.01800
H703        H  0.52946018  0.27123622  0.39851512     0.14800
H704        H  0.57892885  0.17793134  0.43954353     0.14800
C705        C  0.54243959  0.16655671  0.39292503     0.36500
C706        C  0.56687633  0.28279185  0.44387538     0.36400
N707        N  0.53883977  0.14262686  0.38275817    -0.43900
N708        N  0.57104749  0.30668704  0.45391757    -0.43900
C709        C  0.38195036  0.21581729  0.42447188    -0.00300
C710        C  0.38056557  0.19821737  0.39813707    -0.12200
C711        C  0.40425192  0.19913635  0.37735034     0.02000
C712        C  0.43025718  0.21707602  0.38344299    -0.00400
C713        C  0.43174458  0.23444700  0.40993136    -0.12100
C714        C  0.40758793  0.23440301  0.43013489     0.01800
H715        H  0.36053092  0.18451373  0.39337636     0.14800
H716        H  0.45154819  0.24854362  0.41448634     0.14800
C717        C  0.40953230  0.25359093  0.45653558     0.36500
C718        C  0.40081584  0.18248590  0.34944085     0.36400
N719        N  0.41106156  0.26879652  0.47781115    -0.43900
N720        N  0.39787992  0.16922435  0.32701620    -0.43900
C721        C  0.48641592  0.26309981  0.29499588    -0.00300
C722        C  0.45883009  0.27265159  0.28090679    -0.12200
C723        C  0.45799326  0.29541384  0.25873750     0.02000
C724        C  0.48518283  0.31047317  0.25065663    -0.00400
C725        C  0.51302519  0.29767362  0.26129206    -0.12100
C726        C  0.51388136  0.27388082  0.28248833     0.01800
H727        H  0.43756484  0.26191579  0.28664793     0.14800
H728        H  0.53442707  0.30557102  0.25251528     0.14800
C729        C  0.54326888  0.26030303  0.28970140     0.36500
C730        C  0.42874366  0.30210542  0.24443328     0.36400
N731        N  0.56688700  0.24951897  0.29535269    -0.43900
N732        N  0.40517126  0.30752522  0.23327092    -0.43900
C733        C  0.57251649  0.77430314  0.46598747    -0.00300
C734        C  0.54247883  0.78377151  0.47166833    -0.12200
C735        C  0.51997073  0.78526920  0.44858194     0.02000
C736        C  0.52706043  0.77677790  0.41870727    -0.00400
C737        C  0.55689599  0.76644144  0.41332535    -0.12100
C738        C  0.57932228  0.76483801  0.43630802     0.01800
H739        H  0.53637927  0.79017636  0.49439630     0.14800
H740        H  0.56321373  0.76021238  0.39060757     0.14800
C741        C  0.60908194  0.75421343  0.42776499     0.36500
C742        C  0.49005047  0.79553933  0.45683369     0.36400
N743        N  0.63233688  0.74494777  0.41989079    -0.43900
N744        N  0.46648956  0.80452877  0.46412038    -0.43900
C745        C  0.74859833  0.60216649  0.47281162    -0.00300
C746        C  0.77705314  0.59511529  0.46047170    -0.12200
C747        C  0.77937559  0.57508881  0.43593273     0.02000
C748        C  0.75299227  0.56070075  0.42405161    -0.00400
C749        C  0.72444293  0.56868458  0.43572581    -0.12100
C750        C  0.72198981  0.58934878  0.45955186     0.01800
H751        H  0.79750272  0.60580752  0.46963464     0.14800
H752        H  0.70389724  0.55791351  0.42692577     0.14800
C753        C  0.69190625  0.59584950  0.47064354     0.36500
C754        C  0.80869970  0.57129929  0.42217220     0.36400
N755        N  0.66775786  0.60101897  0.47945719    -0.43900
N756        N  0.83216827  0.56875813  0.41093306    -0.43900
C757        C  0.71146613  0.69480665  0.53017887    -0.00300
C758        C  0.70725359  0.71148092  0.50319643    -0.12200
C759        C  0.68669616  0.73585275  0.50126722     0.02000
C760        C  0.66839053  0.74310817  0.52621337    -0.00400
C761        C  0.67681365  0.73025038  0.55437440    -0.12100
C762        C  0.69895015  0.70725990  0.55671463     0.01800
H763        H  0.72015954  0.70553064  0.48343651     0.14800
H764        H  0.66729289  0.73883956  0.57499824     0.14800
C765        C  0.71028597  0.69949915  0.58665912     0.36500
C766        C  0.68583434  0.75370974  0.47386065     0.36400
N767        N  0.71947461  0.69367688  0.61073390    -0.43900
N768        N  0.68589831  0.76847121  0.45220590    -0.43900
C769        C  0.37320691  0.54777067  0.77767113    -0.00300
C770        C  0.37976674  0.56083414  0.80604105    -0.12200
C771        C  0.40219282  0.58337645  0.80950041     0.02000
C772        C  0.41916005  0.59267544  0.78438104    -0.00400
C773        C  0.41272900  0.57941745  0.75611900    -0.12100
C774        C  0.38997230  0.55745592  0.75248177     0.01800
H775        H  0.36678612  0.55393441  0.82544114     0.14800
H776        H  0.42577711  0.58610106  0.73668799     0.14800
C777        C  0.38520185  0.54463949  0.72274216     0.36500
C778        C  0.40596491  0.59783561  0.83858465     0.36400
N779        N  0.38128573  0.53470002  0.69877759    -0.43900
N780        N  0.40867305  0.60951782  0.86189269    -0.43900
C781        C  0.52094843  0.78093667  0.60774083    -0.00300
C782        C  0.53447178  0.80899606  0.60120171    -0.12200
C783        C  0.55811408  0.81117322  0.58038762     0.02000
C784        C  0.56830278  0.78498953  0.56540316    -0.00400
C785        C  0.55364937  0.75726308  0.57061059    -0.12100
C786        C  0.53005651  0.75508715  0.59130897     0.01800
H787        H  0.52731598  0.82911937  0.61295410     0.14800
H788        H  0.56078318  0.73716182  0.55847550     0.14800
C789        C  0.51490351  0.72627947  0.59456069     0.36500
C790        C  0.57271833  0.84008676  0.57600720     0.36400
N791        N  0.50258303  0.70330572  0.59727606    -0.43900
N792        N  0.58458047  0.86318675  0.57250331    -0.43900
C793        C  0.41964667  0.77580473  0.60747568    -0.00300
C794        C  0.42990776  0.77466200  0.57772642    -0.12200
C795        C  0.40929958  0.77266615  0.55302880     0.02000
C796        C  0.37746034  0.77312021  0.55759248    -0.00400
C797        C  0.36718574  0.77372652  0.58750451    -0.12100
C798        C  0.38788598  0.77488728  0.61229014     0.01800
H799        H  0.45426885  0.77413177  0.57381012     0.14800
H800        H  0.34286109  0.77395720  0.59152964     0.14800
C801        C  0.37589461  0.77592653  0.64235987     0.36500
C802        C  0.42172900  0.76713259  0.52372123     0.36400
N803        N  0.36613101  0.77660192  0.66642275    -0.43900
N804        N  0.43250856  0.76178156  0.50073237    -0.43900
C805        C  0.47286258  0.68729581  0.74741799    -0.00300
C806        C  0.50075102  0.69872517  0.73711792    -0.12200
C807        C  0.50173241  0.72233685  0.71573735     0.02000
C808        C  0.47425669  0.73385044  0.70218706    -0.00400
C809        C  0.44676970  0.72547889  0.71567815    -0.12100
C810        C  0.44590266  0.70334898  0.73843875     0.01800
H811        H  0.52211377  0.69031627  0.74674420     0.14800
H812        H  0.42564838  0.73675763  0.70884192     0.14800
C813        C  0.41697471  0.69862000  0.75267822     0.36500
C814        C  0.53114152  0.73583054  0.71068115     0.36400
N815        N  0.39368904  0.69491504  0.76391007    -0.43900
N816        N  0.55481806  0.74660919  0.70704541    -0.43900
C817        C  0.56369097  0.53930385  0.79436288    -0.00300
C818        C  0.55467273  0.55212887  0.76630882    -0.12200
C819        C  0.53319481  0.57590979  0.76414086     0.02000
C820        C  0.52053949  0.58838393  0.79059979    -0.00400
C821        C  0.52805098  0.57435154  0.81832084    -0.12100
C822        C  0.54893525  0.55006699  0.82048710     0.01800
H823        H  0.56411679  0.54319153  0.74569079     0.14800
H824        H  0.51772550  0.58235190  0.83869879     0.14800
C825        C  0.55407774  0.53719860  0.85013497     0.36500
C826        C  0.52345439  0.58571976  0.73425897     0.36400
N827        N  0.55662364  0.52720300  0.87427154    -0.43900
N828        N  0.51559539  0.59361916  0.71033701    -0.43900
C829        C  0.56639033  0.43660399  0.78959734    -0.00300
C830        C  0.55577243  0.43014413  0.76011733    -0.12200
C831        C  0.53248648  0.40913733  0.75450152     0.02000
C832        C  0.51935857  0.39318085  0.77874517    -0.00400
C833        C  0.52982745  0.39971215  0.80834213    -0.12100
C834        C  0.55288344  0.42125713  0.81398458     0.01800
H835        H  0.56513783  0.44234792  0.74117454     0.14800
H836        H  0.52023679  0.38766357  0.82724846     0.14800
C837        C  0.56236379  0.42645823  0.84498422     0.36500
C838        C  0.52168891  0.40592981  0.72360636     0.36400
N839        N  0.56922304  0.43036218  0.87009171    -0.43900
N840        N  0.51334807  0.40352564  0.69871567    -0.43900
C841        C  0.75036655  0.55133138  0.62461676    -0.00300
C842        C  0.73334530  0.54627350  0.59792513    -0.12200
C843        C  0.73266655  0.56777668  0.57454567     0.02000
C844        C  0.74845041  0.59536381  0.57814043    -0.00400
C845        C  0.76392303  0.60121686  0.60566305    -0.12100
C846        C  0.76526726  0.57930928  0.62875235     0.01800
H847        H  0.72124905  0.52501789  0.59501298     0.14800
H848        H  0.77530142  0.62280364  0.60893048     0.14800
C849        C  0.78172801  0.58610094  0.65652665     0.36500
C850        C  0.71557782  0.56081841  0.54724389     0.36400
N851        N  0.79479064  0.59171361  0.67884348    -0.43900
N852        N  0.70165485  0.55444018  0.52567713    -0.43900
C853        C  0.75978410  0.44812932  0.61837078    -0.00300
C854        C  0.75480473  0.41732790  0.62533937    -0.12200
C855        C  0.75545923  0.39462007  0.60305713     0.02000
C856        C  0.76071981  0.40232823  0.57255415    -0.00400
C857        C  0.76820886  0.43247732  0.56608286    -0.12100
C858        C  0.76760961  0.45525936  0.58818843     0.01800
H859        H  0.75064415  0.41074667  0.64849090     0.14800
H860        H  0.77405090  0.43867904  0.54335660     0.14800
C861        C  0.77472941  0.48545645  0.57810424     0.36500
C862        C  0.75228110  0.36345945  0.61255467     0.36400
N863        N  0.78136575  0.50901319  0.56879295    -0.43900
N864        N  0.74982968  0.33845053  0.62011364    -0.43900
C865        C  0.66104157  0.48970322  0.75465398    -0.00300
C866        C  0.69064856  0.47935907  0.76283232    -0.12200
C867        C  0.71458327  0.47891124  0.74219309     0.02000
C868        C  0.71002717  0.49079513  0.71250034    -0.00400
C869        C  0.67963940  0.49737543  0.70336728    -0.12100
C870        C  0.65542615  0.49631574  0.72360270     0.01800
H871        H  0.69508686  0.46968770  0.78497764     0.14800
H872        H  0.67459222  0.50318240  0.67994569     0.14800
C873        C  0.62493397  0.50101680  0.71129342     0.36500
C874        C  0.74195409  0.46278622  0.75166147     0.36400
N875        N  0.60056272  0.50463823  0.70120149    -0.43900
N876        N  0.76358782  0.44956683  0.75969595    -0.43900
C877        C  0.06805361  0.33052672  0.49061734    -0.00300
C878        C  0.07750077  0.35245266  0.46986952    -0.12200
C879        C  0.10852680  0.35842862  0.46585783     0.02000
C880        C  0.13092865  0.34214311  0.48280556    -0.00400
C881        C  0.12137577  0.31952229  0.50301970    -0.12100
C882        C  0.09022025  0.31394375  0.50731717     0.01800
H883        H  0.06042092  0.36578865  0.45749908     0.14800
H884        H  0.13827886  0.30708919  0.51648141     0.14800
C885        C  0.08148169  0.29279265  0.53045489     0.36500
C886        C  0.11641791  0.38145000  0.44422310     0.36400
N887        N  0.07441290  0.27603180  0.54916495    -0.43900
N888        N  0.12205723  0.40015548  0.42687531    -0.43900
C889        C  0.88432334  0.32918202  0.50301861    -0.00300
C890        C  0.86855665  0.31287082  0.52496859    -0.12200
C891        C  0.83724807  0.31816425  0.52938360     0.02000
C892        C  0.82123773  0.33965601  0.51114439    -0.00400
C893        C  0.83679248  0.35486654  0.48841646    -0.12100
C894        C  0.86803143  0.35008268  0.48445702     0.01800
H895        H  0.88115993  0.29776990  0.54017195     0.14800
H896        H  0.82463640  0.37123240  0.47419286     0.14800
C897        C  0.88324240  0.36815697  0.46215714     0.36500
C898        C  0.82288458  0.30360992  0.55458456     0.36400
N899        N  0.89529590  0.38287099  0.44438685    -0.43900
N900        N  0.81145979  0.29222976  0.57499140    -0.43900
C901        C  0.98068754  0.45262645  0.40278325    -0.00300
C902        C  0.98689909  0.42286556  0.39339886    -0.12200
C903        C  0.98572402  0.39855857  0.41372792     0.02000
C904        C  0.97710563  0.40385171  0.44387010    -0.00400
C905        C  0.97013837  0.43354161  0.45291950    -0.12100
C906        C  0.97197391  0.45783294  0.43286687     0.01800
H907        H  0.99338323  0.41863647  0.37027525     0.14800
H908        H  0.96324347  0.43792250  0.47590316     0.14800
C909        C  0.96379529  0.48763955  0.44369606     0.36500
C910        C  0.99502883  0.36895062  0.40331787     0.36400
N911        N  0.95719360  0.51154251  0.45224001    -0.43900
N912        N  0.00281885  0.34536666  0.39486647    -0.43900
C913        C  0.06704448  0.50607019  0.31629523    -0.00300
C914        C  0.08444428  0.52759327  0.30098950    -0.12200
C915        C  0.11655062  0.52692386  0.30318838     0.02000
C916        C  0.13150513  0.50462159  0.32127924    -0.00400
C917        C  0.11407770  0.48199442  0.33478618    -0.12100
C918        C  0.08218564  0.48249229  0.33233797     0.01800
H919        H  0.07297955  0.54627026  0.28934665     0.14800
H920        H  0.12537920  0.46459483  0.34843062     0.14800
C921        C  0.06533319  0.45964643  0.34825094     0.36500
C922        C  0.13341510  0.55101992  0.28922884     0.36400
N923        N  0.05197869  0.44124080  0.36100975    -0.43900
N924        N  0.14704920  0.57029568  0.27808891    -0.43900
C925        C  0.88683822  0.51167594  0.34812344    -0.00300
C926        C  0.87712955  0.49484038  0.37308942    -0.12200
C927        C  0.84606052  0.49260329  0.37985212     0.02000
C928        C  0.82395280  0.50873401  0.36226150    -0.00400
C929        C  0.83389154  0.52517539  0.33690975    -0.12100
C930        C  0.86486461  0.52633246  0.32952963     0.01800
H931        H  0.89399737  0.48318078  0.38731203     0.14800
H932        H  0.81749199  0.53778253  0.32303524     0.14800
C933        C  0.87374704  0.54400116  0.30372817     0.36500
C934        C  0.83776956  0.47236910  0.40396380     0.36400
N935        N  0.88101455  0.55808948  0.28303556    -0.43900
N936        N  0.83164454  0.45584202  0.42322866    -0.43900
C937        C  0.96305676  0.65431169  0.39164469    -0.00300
C938        C  0.99228047  0.65281483  0.37959956    -0.12200
C939        C  0.99787459  0.63232011  0.35627062     0.02000
C940        C  0.97361312  0.61471891  0.34455530    -0.00400
C941        C  0.94354002  0.62357512  0.35041241    -0.12100
C942        C  0.93805907  0.64333671  0.37439396     0.01800
H943        H  0.01150408  0.66239683  0.39213912     0.14800
H944        H  0.92463597  0.61080841  0.34064820     0.14800
C945        C  0.90720510  0.64729403  0.38463113     0.36500
C946        C  0.02906727  0.62549452  0.34881907     0.36400
N947        N  0.88254400  0.65052681  0.39295315    -0.43900
N948        N  0.05410441  0.62004958  0.34291885    -0.43900
C949        C  0.05763821  0.65158049  0.49752191    -0.00300
C950        C  0.07259703  0.67284102  0.47957726    -0.12200
C951        C  0.10456277  0.67243009  0.47739218     0.02000
C952        C  0.12226558  0.65131480  0.49452611    -0.00400
C953        C  0.10718027  0.63071768  0.51323089    -0.12100
C954        C  0.07523985  0.63033666  0.51443413     0.01800
H955        H  0.05915201  0.68835178  0.46552153     0.14800
H956        H  0.12036206  0.61442562  0.52660891     0.14800
C957        C  0.06099734  0.60762000  0.53290922     0.36500
C958        C  0.11809865  0.69161153  0.45497947     0.36400
N959        N  0.04959574  0.58936452  0.54764248    -0.43900
N960        N  0.12846920  0.70667791  0.43644835    -0.43900
C961        C  0.88066121  0.66421183  0.51117007    -0.00300
C962        C  0.87221865  0.64403463  0.53404536    -0.12200
C963        C  0.84141099  0.63888857  0.54012137     0.02000
C964        C  0.81845853  0.65525550  0.52406966    -0.00400
C965        C  0.82707756  0.67614972  0.50178099    -0.12100
C966        C  0.85778197  0.68024725  0.49483775     0.01800
H967        H  0.88968931  0.63064073  0.54576382     0.14800
H968        H  0.80965301  0.68843283  0.48883944     0.14800
C969        C  0.86521416  0.70042110  0.47036584     0.36500
C970        C  0.83424855  0.61601715  0.56217613     0.36400
N971        N  0.87106732  0.71657448  0.45070756    -0.43900
N972        N  0.82912078  0.59719476  0.57957041    -0.43900
C973        C  0.94996022  0.51280126  0.56842979    -0.00300
C974        C  0.97310704  0.51255994  0.54700674    -0.12200
C975        C  0.97449811  0.53552684  0.52514211     0.02000
C976        C  0.95200598  0.55853504  0.52436790    -0.00400
C977        C  0.92719679  0.55679707  0.54370336    -0.12100
C978        C  0.92600095  0.53414534  0.56568576     0.01800
H979        H  0.99165922  0.49622172  0.54916592     0.14800
H980        H  0.90962151  0.57425766  0.54278775     0.14800
C981        C  0.90042889  0.53381312  0.58568029     0.36500
C982        C  0.00102739  0.53712416  0.50644315     0.36400
N983        N  0.87965055  0.53353744  0.60134214    -0.43900
N984        N  0.02234328  0.53856422  0.49155176    -0.43900
C985        C  0.97460167  0.37368798  0.64491817    -0.00300
C986        C  0.00401057  0.36357544  0.63814743    -0.12200
C987        C  0.00770457  0.34149062  0.61586025     0.02000
C988        C  0.98170143  0.33010426  0.60049458    -0.00400
C989        C  0.95305439  0.33405424  0.61341114    -0.12100
C990        C  0.94929742  0.35616974  0.63565100     0.01800
H991        H  0.02374368  0.37628352  0.64614408     0.14800
H992        H  0.93297528  0.32430075  0.60246471     0.14800
C993        C  0.91894689  0.36357905  0.64546073     0.36500
C994        C  0.03797634  0.33503910  0.60531688     0.36400
N995        N  0.89468451  0.36938196  0.65359362    -0.43900
N996        N  0.06235940  0.32983686  0.59717039    -0.43900
C997        C  0.06060575  0.48589271  0.65358333    -0.00300
C998        C  0.07213592  0.50398611  0.63042827    -0.12200
C999        C  0.10354841  0.50712592  0.62650135     0.02000
C1000       C  0.12449168  0.49077291  0.64524153    -0.00400
C1001       C  0.11289398  0.47352139  0.66926148    -0.12100
C1002       C  0.08130765  0.47132116  0.67379298     0.01800
H1003       H  0.05635878  0.51577106  0.61511948     0.14800
H1004       H  0.12846300  0.46094778  0.68407981     0.14800
C1005       C  0.07079086  0.45280334  0.69834068     0.36500
C1006       C  0.11309738  0.52837167  0.60379278     0.36400
N1007       N  0.06242514  0.43809207  0.71816027    -0.43900
N1008       N  0.11982825  0.54573565  0.58550171    -0.43900
C1009       C  0.88696877  0.48748226  0.68614456    -0.00300
C1010       C  0.86740435  0.46370710  0.69394970    -0.12200
C1011       C  0.83568946  0.46760092  0.69301361     0.02000
C1012       C  0.82294049  0.49585893  0.68446228    -0.00400
C1013       C  0.84236797  0.52025483  0.67860785    -0.12100
C1014       C  0.87424805  0.51642077  0.67973600     0.01800
H1015       H  0.87684378  0.44129798  0.69852086     0.14800
H1016       H  0.83262738  0.54192276  0.67179075     0.14800
C1017       C  0.89310181  0.54167337  0.67125765     0.36500
C1018       C  0.81668278  0.44141872  0.69779970     0.36400
N1019       N  0.90820186  0.56185171  0.66424798    -0.43900
N1020       N  0.80141077  0.42042260  0.70132122    -0.43900
C1021       C  0.29940392  0.09156117  0.49283635    -0.00300
C1022       C  0.29453436  0.10072943  0.46263866    -0.12200
C1023       C  0.29911858  0.13109206  0.45405415     0.02000
C1024       C  0.30853520  0.15248455  0.47594867    -0.00400
C1025       C  0.31079350  0.14386795  0.50634113    -0.12100
C1026       C  0.30624064  0.11379758  0.51496964     0.01800
H1027       H  0.28942959  0.08387130  0.44545321     0.14800
H1028       H  0.31723554  0.16055104  0.52331084     0.14800
C1029       C  0.30996839  0.10622292  0.54663834     0.36500
C1030       C  0.29579352  0.13943863  0.42259414     0.36400
N1031       N  0.31308103  0.10035000  0.57203213    -0.43900
N1032       N  0.29310417  0.14613323  0.39736272    -0.43900
C1033       C  0.31640452  0.90950543  0.50310902    -0.00300
C1034       C  0.33543453  0.89436080  0.52422708    -0.12200
C1035       C  0.33811626  0.86285288  0.52469115     0.02000
C1036       C  0.32182465  0.84515838  0.50328820    -0.00400
C1037       C  0.30236157  0.86015459  0.48210852    -0.12100
C1038       C  0.29953868  0.89210044  0.48185955     0.01800
H1039       H  0.34820017  0.90727017  0.54108912     0.14800
H1040       H  0.28973915  0.84693269  0.46543020     0.14800
C1041       C  0.28005636  0.90640494  0.45918276     0.36500
C1042       C  0.35677363  0.84985869  0.54870281     0.36400
N1043       N  0.26447277  0.91801763  0.44104972    -0.43900
N1044       N  0.37196351  0.84101071  0.56859038    -0.43900
C1045       C  0.39196268  0.00329506  0.45214137    -0.00300
C1046       C  0.38461417  0.99902977  0.42139314    -0.12200
C1047       C  0.40720791  0.99738118  0.39975415     0.02000
C1048       C  0.43831601  0.00002767  0.40864264    -0.00400
C1049       C  0.44579362  0.00414588  0.43945556    -0.12100
C1050       C  0.42304638  0.00585251  0.46117657     0.01800
H1051       H  0.36093007  0.99684660  0.41402656     0.14800
H1052       H  0.46952368  0.00628141  0.44666948     0.14800
C1053       C  0.43244662  0.01037740  0.49235434     0.36500
C1054       C  0.39738934  0.99293261  0.36868252     0.36400
N1055       N  0.44003906  0.01404866  0.51731245    -0.43900
N1056       N  0.38935044  0.98943598  0.34383194    -0.43900
C1057       C  0.49059955  0.08826133  0.32386814    -0.00300
C1058       C  0.51097848  0.10583786  0.30732736    -0.12200
C1059       C  0.50986935  0.13774411  0.30871507     0.02000
C1060       C  0.48820389  0.15228269  0.32712647    -0.00400
C1061       C  0.46721075  0.13446467  0.34255750    -0.12100
C1062       C  0.46801587  0.10286828  0.34080591     0.01800
H1063       H  0.52897405  0.09469775  0.29501021     0.14800
H1064       H  0.45058095  0.14518416  0.35681799     0.14800
C1065       C  0.44605576  0.08566570  0.35757405     0.36500
C1066       C  0.53278936  0.15484665  0.29324222     0.36400
N1067       N  0.42849312  0.07173830  0.37085444    -0.43900
N1068       N  0.55106235  0.16873042  0.28087185    -0.43900
C1069       C  0.49713193  0.90738136  0.33545841    -0.00300
C1070       C  0.52083414  0.88916986  0.34762945    -0.12200
C1071       C  0.51637088  0.85846739  0.35392125     0.02000
C1072       C  0.48765387  0.84526414  0.34821378    -0.00400
C1073       C  0.46436904  0.86278980  0.33427995    -0.12100
C1074       C  0.46884465  0.89374365  0.32791190     0.01800
H1075       H  0.54281640  0.89923706  0.35316278     0.14800
H1076       H  0.44244644  0.85245957  0.32912130     0.14800
C1077       C  0.44360781  0.91126544  0.31542108     0.36500
C1078       C  0.54183979  0.84097462  0.36589268     0.36400
N1079       N  0.42337428  0.92531572  0.30539231    -0.43900
N1080       N  0.56262152  0.82722368  0.37511949    -0.43900
C1081       C  0.64096458  0.00852161  0.39910416    -0.00300
C1082       C  0.63188486  0.03565944  0.38489000    -0.12200
C1083       C  0.61028598  0.03491387  0.36114676     0.02000
C1084       C  0.59908282  0.00666320  0.35121906    -0.00400
C1085       C  0.61486020  0.98012480  0.35969602    -0.12100
C1086       C  0.63576025  0.98083709  0.38407520     0.01800
H1087       H  0.63647165  0.05708776  0.39612296     0.14800
H1088       H  0.60656863  0.95835652  0.35165046     0.14800
C1089       C  0.64555828  0.95247786  0.39770213     0.36500
C1090       C  0.59496976  0.06280532  0.35229716     0.36400
N1091       N  0.65317600  0.92984330  0.40892823    -0.43900
N1092       N  0.58240711  0.08503431  0.34541789    -0.43900
C1093       C  0.64327677  0.09643188  0.50113034    -0.00300
C1094       C  0.64802980  0.11360024  0.47494098    -0.12200
C1095       C  0.64378607  0.14508977  0.47495024     0.02000
C1096       C  0.63428669  0.15967032  0.50143837    -0.00400
C1097       C  0.63044917  0.14273283  0.52789634    -0.12100
C1098       C  0.63485776  0.11120841  0.52792063     0.01800
H1099       H  0.65358303  0.10216616  0.45405797     0.14800
H1100       H  0.62304930  0.15403860  0.54824016     0.14800
C1101       C  0.62837058  0.09424794  0.55493895     0.36500
C1102       C  0.64775419  0.16175983  0.44719428     0.36400
N1103       N  0.62306534  0.08067409  0.57658542    -0.43900
N1104       N  0.65085024  0.17508075  0.42491944    -0.43900
C1105       C  0.63885295  0.91381173  0.49849465    -0.00300
C1106       C  0.62115632  0.89627232  0.47829120    -0.12200
C1107       C  0.61769052  0.86508674  0.48242378     0.02000
C1108       C  0.63176007  0.85053643  0.50754637    -0.00400
C1109       C  0.65082971  0.86765857  0.52699554    -0.12100
C1110       C  0.65453418  0.89905795  0.52264507     0.01800
H1111       H  0.60958069  0.90705722  0.45912023     0.14800
H1112       H  0.66219319  0.85662333  0.54612226     0.14800
C1113       C  0.67347571  0.91565546  0.54390539     0.36500
C1114       C  0.60058943  0.84873654  0.45956432     0.36400
N1115       N  0.68871679  0.92904189  0.56086902    -0.43900
N1116       N  0.58700725  0.83660136  0.44045135    -0.43900
C1117       C  0.51182921  0.99711260  0.59183685    -0.00300
C1118       C  0.50711835  0.98647919  0.56221680    -0.12200
C1119       C  0.53025345  0.98805079  0.54105611     0.02000
C1120       C  0.55869912  0.00094513  0.54931868     0.03200
C1121       C  0.56361191  0.01113772  0.57903677    -0.12100
C1122       C  0.54056736  0.00938692  0.60027379     0.01800
H1123       H  0.48537107  0.97654108  0.55561048     0.14800
H1124       H  0.58542647  0.02095634  0.58562405     0.14800
C1125       C  0.54692610  0.02121649  0.63018595     0.36500
C1126       C  0.52454824  0.97505600  0.51151336     0.36400
N1127       N  0.55194831  0.03067809  0.65416824    -0.43900
N1128       N  0.52015471  0.96448815  0.48788952    -0.43900
C1129       C  0.34829209  0.99307254  0.64814777    -0.00300
C1130       C  0.33423860  0.96674525  0.63700922    -0.12200
C1131       C  0.31248779  0.96890028  0.61343502     0.02000
C1132       C  0.30583354  0.99762323  0.60083646    -0.00400
C1133       C  0.31326173  0.02354663  0.61774032    -0.12100
C1134       C  0.33464867  0.02141697  0.64166022     0.01800
H1135       H  0.34391705  0.94472041  0.64283998     0.14800
H1136       H  0.30712557  0.04576668  0.60884462     0.14800
C1137       C  0.34683914  0.04897948  0.65464288     0.36500
C1138       C  0.30247012  0.94143540  0.59857286     0.36400
N1139       N  0.35663200  0.07104347  0.66507321    -0.43900
N1140       N  0.29445707  0.91929310  0.58689466    -0.43900
C1141       C  0.44572314  0.08849318  0.65343719    -0.00300
C1142       C  0.46666197  0.10348600  0.67276603    -0.12200
C1143       C  0.47189147  0.13483370  0.66977539     0.02000
C1144       C  0.45614745  0.15155288  0.64695751    -0.00400
C1145       C  0.43441312  0.13684405  0.62861997    -0.12100
C1146       C  0.42890596  0.10586306  0.63168381     0.01800
H1147       H  0.47971822  0.09056665  0.68952774     0.14800
H1148       H  0.42153047  0.14970494  0.61165129     0.14800
C1149       C  0.40561640  0.09284854  0.61206183     0.36500
C1150       C  0.49433789  0.14899170  0.68946900     0.36400
N1151       N  0.38689494  0.08269754  0.59625340    -0.43900
N1152       N  0.51219411  0.16042253  0.70536203    -0.43900
C1153       C  0.46146793  0.90840627  0.67704208    -0.00300
C1154       C  0.43972546  0.88938514  0.68993122    -0.12200
C1155       C  0.44274745  0.85766771  0.68820096     0.02000
C1156       C  0.46782875  0.84475390  0.67324118    -0.00400
C1157       C  0.49051371  0.86385492  0.66237609    -0.12100
C1158       C  0.48737106  0.89540249  0.66375209     0.01800
H1159       H  0.41934746  0.89926226  0.69942753     0.14800
H1160       H  0.51031948  0.85414643  0.65195117     0.14800
C1161       C  0.50988121  0.91395549  0.64926841     0.36500
C1162       C  0.41881760  0.83899879  0.70001242     0.36400
N1163       N  0.52786028  0.92868565  0.63744262    -0.43900
N1164       N  0.39964885  0.82409485  0.70961537    -0.43900
C1165       C  0.32370867  0.51891539  0.08504136    -0.00300
C1166       C  0.34341574  0.53908481  0.10043365    -0.12200
C1167       C  0.34669908  0.53861745  0.13201957     0.02000
C1168       C  0.33024014  0.51743981  0.14906673    -0.00400
C1169       C  0.30978766  0.49791920  0.13388643    -0.12100
C1170       C  0.30646391  0.49840768  0.10221578     0.01800
H1171       H  0.35642000  0.55541027  0.08771576     0.14800
H1172       H  0.29712168  0.48146803  0.14677364     0.14800
C1173       C  0.28632705  0.47663523  0.08798718     0.36500
C1174       C  0.36629776  0.56093026  0.14620131     0.36400
N1175       N  0.27022057  0.45913190  0.07655713    -0.43900
N1176       N  0.38195362  0.57926151  0.15689076    -0.43900
C1177       C  0.30016931  0.50372423  0.90393613    -0.00300
C1178       C  0.31149605  0.47659023  0.89194440    -0.12200
C1179       C  0.31547226  0.47341619  0.86075012     0.02000
C1180       C  0.30767736  0.49760049  0.84104112    -0.00400
C1181       C  0.29439005  0.52395030  0.85285613    -0.12100
C1182       C  0.29098866  0.52731920  0.88411171     0.01800
H1183       H  0.31930310  0.45867229  0.90715915     0.14800
H1184       H  0.28825401  0.54257337  0.83779463     0.14800
C1185       C  0.27984737  0.55586943  0.89556996     0.36500
C1186       C  0.32828173  0.44542768  0.84970790     0.36400
N1187       N  0.27095600  0.57874853  0.90479626    -0.43900
N1188       N  0.33848834  0.42278626  0.84127340    -0.43900
C1189       C  0.43058859  0.40492724  0.97717760    -0.00300
C1190       C  0.40374805  0.39955807  0.99294612    -0.12200
C1191       C  0.38255609  0.42270869  0.99750433     0.02000
C1192       C  0.38773302  0.45189204  0.98549439    -0.00400
C1193       C  0.41413444  0.45706673  0.96886603    -0.12100
C1194       C  0.43548221  0.43384653  0.96447763     0.01800
H1195       H  0.39992621  0.37750382  0.00308100     0.14800
H1196       H  0.41796653  0.47922639  0.95898256     0.14800
C1197       C  0.46163624  0.44012823  0.94624209     0.36500
C1198       C  0.35680335  0.41616766  0.01621282     0.36400
N1199       N  0.48245481  0.44519656  0.93145085    -0.43900
N1200       N  0.33637210  0.41083157  0.03142468    -0.43900
C1201       C  0.48800246  0.34318429  0.07833158    -0.00300
C1202       C  0.46881130  0.32404268  0.09467343    -0.12200
C1203       C  0.46576804  0.32728885  0.12615588     0.02000
C1204       C  0.48275426  0.34962313  0.14219958    -0.00400
C1205       C  0.50160558  0.36888033  0.12574579    -0.12100
C1206       C  0.50443490  0.36594478  0.09440994     0.01800
H1207       H  0.45550288  0.30698864  0.08272577     0.14800
H1208       H  0.51471409  0.38620057  0.13745270     0.14800
C1209       C  0.52484244  0.38659554  0.07963442     0.36500
C1210       C  0.44370746  0.30858409  0.14101960     0.36400
N1211       N  0.54099949  0.40329901  0.06778387    -0.43900
N1212       N  0.42592327  0.29368914  0.15293329    -0.43900
C1213       C  0.47792615  0.31050866  0.89877924    -0.00300
C1214       C  0.45029656  0.32312082  0.88799128    -0.12200
C1215       C  0.44581962  0.32991318  0.85724119     0.02000
C1216       C  0.46892708  0.32315546  0.83658919    -0.00400
C1217       C  0.49551950  0.30813808  0.84700416    -0.12100
C1218       C  0.50038509  0.30229032  0.87794158     0.01800
H1219       H  0.43330011  0.33029893  0.90398308     0.14800
H1220       H  0.51331532  0.30273725  0.83121190     0.14800
C1221       C  0.52927593  0.28951365  0.88810626     0.36500
C1222       C  0.41782589  0.34492227  0.84779521     0.36400
N1223       N  0.55240664  0.27924672  0.89630448    -0.43900
N1224       N  0.39521705  0.35698868  0.84078073    -0.43900
C1225       C  0.35563726  0.65804746  0.99520013    -0.00300
C1226       C  0.33828059  0.64949138  0.01996504    -0.12200
C1227       C  0.31766395  0.62555140  0.01688172     0.02000
C1228       C  0.31415367  0.61144403  0.98849176    -0.00400
C1229       C  0.32436762  0.62646713  0.96270872    -0.12100
C1230       C  0.34523196  0.65017318  0.96595696     0.01800
H1231       H  0.34553560  0.65651851  0.04249899     0.14800
H1232       H  0.32079021  0.61621182  0.94063806     0.14800
C1233       C  0.36065343  0.66102025  0.93958154     0.36500
C1234       C  0.30656173  0.61137131  0.04393467     0.36400
N1235       N  0.37291915  0.66966433  0.91837379    -0.43900
N1236       N  0.29795464  0.59986082  0.06563992    -0.43900
C1237       C  0.47265448  0.66883540  0.16135740    -0.00300
C1238       C  0.44427319  0.65777622  0.15144747    -0.12200
C1239       C  0.43506343  0.65991136  0.12106164     0.02000
C1240       C  0.45493658  0.67276948  0.09972963    -0.00400
C1241       C  0.48230872  0.68603043  0.11021915    -0.12100
C1242       C  0.49125077  0.68418942  0.14084739     0.01800
H1243       H  0.42963565  0.64655308  0.16740336     0.14800
H1244       H  0.49772922  0.69603600  0.09423145     0.14800
C1245       C  0.52052255  0.69622032  0.15025534     0.36500
C1246       C  0.40547277  0.64786118  0.11248661     0.36400
N1247       N  0.54400871  0.70590330  0.15772897    -0.43900
N1248       N  0.38174818  0.63819303  0.10578093    -0.43900
C1249       C  0.46959865  0.65458123  0.85705226    -0.00300
C1250       C  0.48945350  0.63769922  0.87598698    -0.12200
C1251       C  0.48856452  0.64036295  0.90747141     0.02000
C1252       C  0.46798295  0.66080469  0.92070434    -0.00400
C1253       C  0.44943303  0.67921746  0.90196774    -0.12100
C1254       C  0.44981917  0.67608973  0.87035313     0.01800
H1255       H  0.50553545  0.62215779  0.86625052     0.14800
H1256       H  0.43315265  0.69456271  0.91207731     0.14800
C1257       C  0.42803688  0.69353708  0.85243346     0.36500
C1258       C  0.50860018  0.62141777  0.92593494     0.36400
N1259       N  0.41051172  0.70757496  0.83818669    -0.43900
N1260       N  0.52453571  0.60632569  0.94091180    -0.43900
C1261       C  0.50973005  0.58162537  0.02631987    -0.00300
C1262       C  0.50140916  0.55126527  0.02122292    -0.12200
C1263       C  0.52325420  0.52788644  0.02263041     0.02000
C1264       C  0.55424811  0.53487426  0.02891080    -0.00400
C1265       C  0.56208104  0.56490254  0.03602158    -0.12100
C1266       C  0.54026240  0.58811744  0.03509013     0.01800
H1267       H  0.47793772  0.54582114  0.01516089     0.14800
H1268       H  0.58558139  0.57048407  0.04185343     0.14800
C1269       C  0.55011738  0.61830380  0.04327770     0.36500
C1270       C  0.51323924  0.49726341  0.01657283     0.36400
N1271       N  0.55800884  0.64245679  0.04993968    -0.43900
N1272       N  0.50520696  0.47270542  0.01185374    -0.43900
C1273       C  0.58647916  0.33426883  0.99770156    -0.00300
C1274       C  0.59235551  0.33944378  0.02851603    -0.12200
C1275       C  0.61056730  0.36397255  0.03726845     0.02000
C1276       C  0.62487495  0.38127993  0.01489506    -0.00400
C1277       C  0.62592316  0.37014204  0.98530910    -0.12100
C1278       C  0.60621206  0.34680275  0.97638177     0.01800
H1279       H  0.57770432  0.32920463  0.04510960     0.14800
H1280       H  0.63750076  0.38305751  0.96814386     0.14800
C1281       C  0.60194423  0.34058898  0.94453689     0.36500
C1282       C  0.60966219  0.37428608  0.06821604     0.36400
N1283       N  0.59841807  0.33579125  0.91899014    -0.43900
N1284       N  0.60846693  0.38278796  0.09289415    -0.43900
C1285       C  0.65526005  0.49464252  0.16743564    -0.00300
C1286       C  0.66134957  0.46560473  0.15620419    -0.12200
C1287       C  0.66418711  0.46101401  0.12508915     0.02000
C1288       C  0.66053036  0.48568546  0.10489750    -0.00400
C1289       C  0.65765746  0.51511747  0.11648740    -0.12100
C1290       C  0.65496898  0.51972757  0.14763895     0.01800
H1291       H  0.66208775  0.44633656  0.17150346     0.14800
H1292       H  0.65472639  0.53416681  0.10110699     0.14800
C1293       C  0.65037527  0.55016342  0.15870722     0.36500
C1294       C  0.66976302  0.43069794  0.11408556     0.36400
N1295       N  0.64694171  0.57458096  0.16763314    -0.43900
N1296       N  0.67465311  0.40656443  0.10506169    -0.43900
C1297       C  0.63424651  0.48500861  0.92786201    -0.00300
C1298       C  0.63926235  0.45885724  0.91059575    -0.12200
C1299       C  0.63629575  0.45969618  0.87897587     0.02000
C1300       C  0.62715608  0.48678211  0.86429654    -0.00400
C1301       C  0.62387234  0.51332505  0.88139986    -0.12100
C1302       C  0.62694669  0.51255299  0.91306292     0.01800
H1303       H  0.64471743  0.43757101  0.92189873     0.14800
H1304       H  0.61823547  0.53451872  0.87004283     0.14800
C1305       C  0.62120651  0.53987874  0.93002076     0.36500
C1306       C  0.64226621  0.43244881  0.86197866     0.36400
N1307       N  0.61655108  0.56172430  0.94368540    -0.43900
N1308       N  0.64715688  0.41076716  0.84815031    -0.43900
loop_ 
_geom_bond_atom_site_label_1 
_geom_bond_atom_site_label_2 
_geom_bond_distance 
_geom_bond_site_symmetry_2 
_ccdc_geom_bond_type 
In1           O3   2.221       .  S
In1           O4   2.236       .  S
In1          O12   2.213   1_554  S
In1           O6   2.267   1_554  S
In1           O8   2.270       .  S
In1           O9   2.189       .  S
In1          O10   2.195       .  S
In1          O13   2.243       .  S
C2            O8   1.270       .  A
C2           O10   1.257       .  A
C2         C1288   1.472       .  S
O3           C11   1.263       .  A
O4           C11   1.263       .  A
C5           O12   1.260       .  A
C5            O6   1.271       .  A
C5         C1297   1.474       .  S
C7            O9   1.265       .  A
C7           O13   1.265       .  A
C7         C1276   1.462       .  S
C11        C1264   1.482       .  S
In14         O16   2.206       .  S
In14         O17   2.240       .  S
In14         O25   2.258       .  S
In14         O19   2.193       .  S
In14         O21   2.266   1_554  S
In14         O22   2.180       .  S
In14         O23   2.196   1_554  S
In14         O26   2.244       .  S
C15          O21   1.273       .  A
C15          O23   1.261       .  A
C15        C1252   1.475       .  S
O16          C24   1.265       .  A
O17          C24   1.269       .  A
C18          O25   1.273       .  A
C18          O19   1.261       .  A
C18        C1240   1.484       .  S
C20          O22   1.267       .  A
C20          O26   1.265       .  A
C20        C1225   1.459   1_554  S
C24        C1261   1.483       .  S
In27         O29   2.238       .  S
In27         O30   2.174       .  S
In27         O38   2.187       .  S
In27         O32   2.265       .  S
In27         O34   2.278   1_556  S
In27         O35   2.219       .  S
In27         O36   2.199   1_556  S
In27         O39   2.204       .  S
C28          O34   1.278       .  A
C28          O36   1.263       .  A
C28        C1201   1.497       .  S
O29          C37   1.269       .  A
O30          C37   1.267       .  A
C31          O38   1.259       .  A
C31          O32   1.275       .  A
C31        C1213   1.471       .  S
C33          O35   1.267       .  A
C33          O39   1.266       .  A
C33        C1189   1.472       .  S
C37        C1273   1.460       .  S
In40         O42   2.233       .  S
In40         O43   2.173       .  S
In40         O51   2.209   1_556  S
In40         O45   2.253   1_556  S
In40         O47   2.261       .  S
In40         O48   2.220       .  S
In40         O49   2.184       .  S
In40         O52   2.198       .  S
C41          O47   1.276       .  A
C41          O49   1.262       .  A
C41        C1177   1.470       .  S
O42          C50   1.268       .  A
O43          C50   1.269       .  A
C44          O51   1.266       .  A
C44          O45   1.275       .  A
C44        C1165   1.491       .  S
C46          O48   1.270       .  A
C46          O52   1.266       .  A
C46        C1192   1.473       .  S
C50        C1228   1.458       .  S
In53         O55   2.207       .  S
In53         O56   2.223       .  S
In53         O64   2.185       .  S
In53         O58   2.264       .  S
In53         O60   2.267   1_565  S
In53         O61   2.184       .  S
In53         O62   2.187   1_565  S
In53         O65   2.248       .  S
C54          O60   1.276       .  A
C54          O62   1.263       .  A
C54        C1141   1.488       .  S
O55          C63   1.266       .  A
O56          C63   1.269       .  A
C57          O64   1.260       .  A
C57          O58   1.274       .  A
C57        C1153   1.470       .  S
C59          O61   1.266       .  A
C59          O65   1.267       .  A
C59        C1129   1.463       .  S
C63        C1117   1.478       .  S
In66         O68   2.219       .  S
In66         O69   2.210       .  S
In66         O77   2.180       .  S
In66         O71   2.255       .  S
In66         O73   2.260   1_545  S
In66         O74   2.171       .  S
In66         O75   2.182   1_545  S
In66         O78   2.246       .  S
C67          O73   1.276       .  A
C67          O75   1.263       .  A
C67        C1105   1.486       .  S
O68          C76   1.267       .  A
O69          C76   1.267       .  A
C70          O77   1.261       .  A
C70          O71   1.275       .  A
C70        C1093   1.467       .  S
C72          O74   1.267       .  A
C72          O78   1.268       .  A
C72        C1081   1.459       .  S
C76        C1120   1.475       .  S
In79         O81   2.248   1_565  S
In79         O82   2.176   1_565  S
In79         O90   2.182   1_565  S
In79         O84   2.273   1_565  S
In79         O86   2.272       .  S
In79         O87   2.236   1_565  S
In79         O88   2.188       .  S
In79         O91   2.211       .  S
C80          O86   1.273       .  A
C80          O88   1.260       .  A
C80        C1069   1.482       .  S
O81          C89   1.266       .  A
O82          C89   1.265       .  A
C83          O90   1.259       .  A
C83          O84   1.274       .  A
C83        C1057   1.472       .  S
C85          O87   1.267   1_565  A
C85          O91   1.265       .  A
C85        C1048   1.484   1_565  S
C89        C1084   1.459       .  S
In92         O94   2.255   1_545  S
In92         O95   2.183       .  S
In92        O103   2.174   1_545  S
In92         O97   2.270   1_545  S
In92         O99   2.268       .  S
In92        O100   2.232       .  S
In92        O101   2.182       .  S
In92        O104   2.205       .  S
C93          O99   1.275       .  A
C93         O101   1.261       .  A
C93        C1021   1.479       .  S
O94         C102   1.268   1_565  A
O95         C102   1.267       .  A
C96         O103   1.263       .  A
C96          O97   1.276       .  A
C96        C1033   1.487       .  S
C98         O100   1.268       .  A
C98         O104   1.267       .  A
C98        C1045   1.483       .  S
C102       C1132   1.464   1_545  S
In105       O107   2.223       .  S
In105       O108   2.248       .  S
In105       O116   2.210   1_655  S
In105       O110   2.286   1_655  S
In105       O112   2.275       .  S
In105       O113   2.198       .  S
In105       O114   2.210       .  S
In105       O117   2.251       .  S
C106        O112   1.267       .  A
C106        O114   1.256       .  A
C106       C1009   1.481       .  S
O107        C115   1.262       .  A
O108        C115   1.263       .  A
C109        O116   1.256       .  A
C109        O110   1.269       .  A
C109        C997   1.482       .  S
C111        O113   1.263       .  A
C111        O117   1.263       .  A
C111        C985   1.463       .  S
C115        C973   1.468       .  S
In118       O120   2.203       .  S
In118       O121   2.253       .  S
In118       O129   2.216       .  S
In118       O123   2.259       .  S
In118       O125   2.274   1_655  S
In118       O126   2.189       .  S
In118       O127   2.217   1_655  S
In118       O130   2.247       .  S
C119        O125   1.269       .  A
C119        O127   1.258       .  A
C119        C949   1.479       .  S
O120        C128   1.260       .  A
O121        C128   1.266       .  A
C122        O129   1.256       .  A
C122        O123   1.268       .  A
C122        C961   1.471       .  S
C124        O126   1.265       .  A
C124        O130   1.264       .  A
C124        C937   1.462       .  S
C128        C976   1.466       .  S
In131       O133   2.246       .  S
In131       O134   2.187       .  S
In131       O142   2.200       .  S
In131       O136   2.263       .  S
In131       O138   2.274   1_655  S
In131       O139   2.193       .  S
In131       O140   2.184   1_655  S
In131       O143   2.219       .  S
C132        O138   1.276       .  A
C132        O140   1.261       .  A
C132        C913   1.475       .  S
O133        C141   1.266       .  A
O134        C141   1.266       .  A
C135        O142   1.263       .  A
C135        O136   1.278       .  A
C135        C925   1.480       .  S
C137        O139   1.269       .  A
C137        O143   1.270       .  A
C137        C901   1.473       .  S
C141        C940   1.462       .  S
In144       O146   2.250       .  S
In144       O147   2.175       .  S
In144       O155   2.186   1_655  S
In144       O149   2.264   1_655  S
In144       O151   2.274       .  S
In144       O152   2.193       .  S
In144       O153   2.188       .  S
In144       O156   2.223       .  S
C145        O151   1.277       .  A
C145        O153   1.261       .  A
C145        C889   1.477       .  S
O146        C154   1.267       .  A
O147        C154   1.266       .  A
C148        O155   1.262       .  A
C148        O149   1.278       .  A
C148        C877   1.473       .  S
C150        O152   1.269       .  A
C150        O156   1.270       .  A
C150        C904   1.476       .  S
C154        C988   1.461       .  S
C157        C158   1.545       .  S
C157        C163   1.545       .  S
C157        C161   1.544       .  S
C157        C868   1.550       .  S
C158        H165   1.086       .  S
C158        C159   1.363       .  D
C159        C160   1.538       .  S
C159        C841   1.481       .  S
C160        C164   1.534       .  S
C160        C162   1.545       .  S
C160        H166   1.106       .  S
C161        H167   1.086       .  S
C161        C162   1.376       .  D
C162        C853   1.512       .  S
C163        H168   1.080       .  S
C163        C164   1.362       .  D
C164       C1012   1.482       .  S
C169        C170   1.533       .  S
C169        C175   1.542       .  S
C169        C173   1.545       .  S
C169        C865   1.548       .  S
C170        H177   1.086       .  S
C170        C171   1.368       .  D
C171        C172   1.544       .  S
C171        C829   1.499       .  S
C172        C176   1.546       .  S
C172        C174   1.548       .  S
C172        H178   1.104       .  S
C173        H179   1.085       .  S
C173        C174   1.375       .  D
C174        C817   1.511       .  S
C175        H180   1.084       .  S
C175        C176   1.362       .  D
C176       C1300   1.483       .  S
C181        C182   1.550       .  S
C181        C187   1.534       .  S
C181        C185   1.545       .  S
C181        C808   1.543       .  S
C182        H189   1.086       .  S
C182        C183   1.369       .  D
C183        C184   1.542       .  S
C183        C793   1.494       .  S
C184        C188   1.544       .  S
C184        C186   1.536       .  S
C184        H190   1.111       .  S
C185        H191   1.083       .  S
C185        C186   1.368       .  D
C186        C781   1.495       .  S
C187        H192   1.086       .  S
C187        C188   1.363       .  D
C188       C1156   1.485       .  S
C193        C194   1.548       .  S
C193        C199   1.531       .  S
C193        C197   1.541       .  S
C193        C805   1.544       .  S
C194        H201   1.082       .  S
C194        C195   1.374       .  D
C195        C196   1.547       .  S
C195        C820   1.508       .  S
C196        C200   1.551       .  S
C196        C198   1.539       .  S
C196        H202   1.109       .  S
C197        H203   1.085       .  S
C197        C198   1.365       .  D
C198        C772   1.494       .  S
C199        H204   1.086       .  S
C199        C200   1.365       .  D
C200       C1249   1.495       .  S
C205        C206   1.545       .  S
C205        C211   1.529       .  S
C205        C209   1.542       .  S
C205        C757   1.533       .  S
C206        H213   1.085       .  S
C206        C207   1.367       .  D
C207        C208   1.541       .  S
C207        C745   1.491       .  S
C208        C212   1.542       .  S
C208        C210   1.542       .  S
C208        H214   1.110       .  S
C209        H215   1.083       .  S
C209        C210   1.361       .  D
C210        C844   1.483       .  S
C211        H216   1.087       .  S
C211        C212   1.364       .  D
C212        C964   1.487       .  S
C217        C218   1.542       .  S
C217        C223   1.534       .  S
C217        C221   1.544       .  S
C217        C760   1.533       .  S
C218        H225   1.083       .  S
C218        C219   1.363       .  D
C219        C220   1.540       .  S
C219        C784   1.487       .  S
C220        C224   1.543       .  S
C220        C222   1.545       .  S
C220        H226   1.109       .  S
C221        H227   1.084       .  S
C221        C222   1.369       .  D
C222        C733   1.500       .  S
C223        H228   1.086       .  S
C223        C224   1.362       .  D
C224       C1108   1.490       .  S
C229        C230   1.537       .  S
C229        C235   1.541       .  S
C229        C233   1.548       .  S
C229        C721   1.542       .  S
C230        H237   1.086       .  S
C230        C231   1.368       .  D
C231        C232   1.542       .  S
C231       C1060   1.489       .  S
C232        C236   1.540       .  S
C232        C234   1.533       .  S
C232        H238   1.110       .  S
C233        H239   1.085       .  S
C233        C234   1.362       .  D
C234        C712   1.481       .  S
C235        H240   1.084       .  S
C235        C236   1.368       .  D
C236        C697   1.495       .  S
C241        C242   1.544       .  S
C241        C247   1.537       .  S
C241        C245   1.543       .  S
C241        C724   1.543       .  S
C242        H249   1.085       .  S
C242        C243   1.363       .  D
C243        C244   1.538       .  S
C243        C673   1.481       .  S
C244        C248   1.548       .  S
C244        C246   1.540       .  S
C244        H250   1.110       .  S
C245        H251   1.084       .  S
C245        C246   1.365       .  D
C246        C685   1.494       .  S
C247        H252   1.085       .  S
C247        C248   1.371       .  D
C248       C1204   1.502       .  S
C253        C254   1.550       .  S
C253        C259   1.539       .  S
C253        C257   1.545       .  S
C253        C661   1.547       .  S
C254        H261   1.084       .  S
C254        C255   1.370       .  D
C255        C256   1.538       .  S
C255        C637   1.496       .  S
C256        C260   1.541       .  S
C256        C258   1.532       .  S
C256        H262   1.111       .  S
C257        H263   1.085       .  S
C257        C258   1.364       .  D
C258        C652   1.480       .  S
C259        H264   1.086       .  S
C259        C260   1.367       .  D
C260        C916   1.487       .  S
C265        C266   1.548       .  S
C265        C271   1.537       .  S
C265        C269   1.541       .  S
C265        C664   1.546       .  S
C266        H273   1.085       .  S
C266        C267   1.370       .  D
C267        C268   1.541       .  S
C267        C688   1.493       .  S
C268        C272   1.540       .  S
C268        C270   1.538       .  S
C268        H274   1.110       .  S
C269        H275   1.085       .  S
C269        C270   1.365       .  D
C270        C625   1.488       .  S
C271        H276   1.086       .  S
C271        C272   1.367       .  D
C272       C1168   1.490       .  S
C277        C278   1.545       .  S
C277        C283   1.534       .  S
C277        C281   1.542       .  S
C277        C613   1.538       .  S
C278        H285   1.084       .  S
C278        C279   1.362       .  D
C279        C280   1.540       .  S
C279        C649   1.487       .  S
C280        C284   1.547       .  S
C280        C282   1.542       .  S
C280        H286   1.110       .  S
C281        H287   1.084       .  S
C281        C282   1.368       .  D
C282        C601   1.493       .  S
C283        H288   1.086       .  S
C283        C284   1.366       .  D
C284        C880   1.493       .  S
C289        C290   1.546       .  S
C289        C295   1.533       .  S
C289        C293   1.540       .  S
C289        C616   1.536       .  S
C290        H297   1.086       .  S
C290        C291   1.371       .  D
C291        C292   1.543       .  S
C291        C589   1.501       .  S
C292        C296   1.540       .  S
C292        C294   1.539       .  S
C292        H298   1.107       .  S
C293        H299   1.083       .  S
C293        C294   1.363       .  D
C294        C709   1.480       .  S
C295        H300   1.087       .  S
C295        C296   1.359       .  D
C296       C1024   1.477       .  S
C301        C302   1.543       .  S
C301        C307   1.533       .  S
C301        C305   1.546       .  S
C301        C577   1.542       .  S
C302        H309   1.083       .  S
C302        C303   1.367       .  D
C303        C304   1.542       .  S
C303        C769   1.494       .  S
C304        C308   1.542       .  S
C304        C306   1.541       .  S
C304        H310   1.110       .  S
C305        H311   1.085       .  S
C305        C306   1.369       .  D
C306        C565   1.497       .  S
C307        H312   1.086       .  S
C307        C308   1.363       .  D
C308       C1180   1.483       .  S
C313        C314   1.539       .  S
C313        C319   1.533       .  S
C313        C317   1.547       .  S
C313        C580   1.541       .  S
C314        H321   1.085       .  S
C314        C315   1.365       .  D
C315        C316   1.544       .  S
C315        C604   1.493       .  S
C316        C320   1.546       .  S
C316        C318   1.545       .  S
C316        H322   1.106       .  S
C317        H323   1.085       .  S
C317        C318   1.370       .  D
C318        C553   1.502       .  S
C319        H324   1.086       .  S
C319        C320   1.367       .  D
C320       C1000   1.499       .  S
C325        C326   1.540       .  S
C325        C331   1.553       .  S
C325        C329   1.545       .  S
C325        C541   1.555       .  S
C326        H333   1.086       .  S
C326        C327   1.368       .  D
C327        C328   1.537       .  S
C327        C529   1.494       .  S
C328        C332   1.543       .  S
C328        C330   1.545       .  S
C328        H334   1.110       .  S
C329        H335   1.086       .  S
C329        C330   1.366       .  D
C330        C796   1.501       .  S
C331        H336   1.082       .  S
C331        C332   1.371       .  D
C332       C1036   1.496       .  S
C337        C338   1.550       .  S
C337        C343   1.552       .  S
C337        C341   1.539       .  S
C337        C544   1.558       .  S
C338        H345   1.085       .  S
C338        C339   1.372       .  D
C339        C340   1.538       .  S
C339        C556   1.499       .  S
C340        C344   1.536       .  S
C340        C342   1.535       .  S
C340        H346   1.110       .  S
C341        H347   1.086       .  S
C341        C342   1.366       .  D
C342        C640   1.491       .  S
C343        H348   1.080       .  S
C343        C344   1.371       .  D
C344        C952   1.495       .  S
C349        C350   1.528       .  S
C349        C355   1.538       .  S
C349        C353   1.541       .  S
C349        C517   1.536       .  S
C350        H357   1.087       .  S
C350        C351   1.357       .  D
C351        C352   1.545       .  S
C351       C1072   1.483       .  S
C352        C356   1.549       .  S
C352        C354   1.547       .  S
C352        H358   1.106       .  S
C353        H359   1.084       .  S
C353        C354   1.368       .  D
C354        C736   1.504       .  S
C355        H360   1.085       .  S
C355        C356   1.371       .  D
C356        C532   1.495       .  S
C361        C362   1.541       .  S
C361        C367   1.540       .  S
C361        C365   1.548       .  S
C361        C520   1.541       .  S
C362        H369   1.086       .  S
C362        C363   1.361       .  D
C363        C364   1.536       .  S
C363        C628   1.484       .  S
C364        C368   1.533       .  S
C364        C366   1.543       .  S
C364        H370   1.109       .  S
C365        H371   1.078       .  S
C365        C366   1.373       .  D
C366        C505   1.502       .  S
C367        H372   1.086       .  S
C367        C368   1.362       .  D
C368       C1237   1.478       .  S
C373        C374   1.544       .  S
C373        C379   1.529       .  S
C373        C377   1.538       .  S
C373        C493   1.538       .  S
C374        H381   1.085       .  S
C374        C375   1.367       .  D
C375        C376   1.545       .  S
C375        C481   1.492       .  S
C376        C380   1.554       .  S
C376        C378   1.547       .  S
C376        H382   1.108       .  S
C377        H383   1.085       .  S
C377        C378   1.365       .  D
C378        C748   1.495       .  S
C379        H384   1.086       .  S
C379        C380   1.367       .  D
C380        C928   1.502       .  S
C385        C386   1.547       .  S
C385        C391   1.535       .  S
C385        C389   1.546       .  S
C385        C496   1.538       .  S
C386        H393   1.085       .  S
C386        C387   1.373       .  D
C387        C388   1.540       .  S
C387        C508   1.499       .  S
C388        C392   1.532       .  S
C388        C390   1.534       .  S
C388        H394   1.108       .  S
C389        H395   1.085       .  S
C389        C390   1.366       .  D
C390        C676   1.481       .  S
C391        H396   1.086       .  S
C391        C392   1.359       .  D
C392       C1285   1.474       .  S
C397        C398   1.546       .  S
C397        C403   1.536       .  S
C397        C401   1.542       .  S
C397        C469   1.544       .  S
C398        H405   1.083       .  S
C398        C399   1.361       .  D
C399        C400   1.537       .  S
C399        C568   1.490       .  S
C400        C404   1.541       .  S
C400        C402   1.547       .  S
C400        H406   1.110       .  S
C401        H407   1.083       .  S
C401        C402   1.373       .  D
C402        C832   1.502       .  S
C403        H408   1.086       .  S
C403        C404   1.363       .  D
C404       C1216   1.484       .  S
C409        C410   1.540       .  S
C409        C415   1.539       .  S
C409        C413   1.557       .  S
C409        C472   1.546       .  S
C410        H417   1.086       .  S
C410        C411   1.360       .  D
C411        C412   1.536       .  S
C411        C457   1.481       .  S
C412        C416   1.537       .  S
C412        C414   1.536       .  S
C412        H418   1.110       .  S
C413        H419   1.080       .  S
C413        C414   1.374       .  D
C414        C592   1.502       .  S
C415        H420   1.086       .  S
C415        C416   1.365       .  D
C416       C1144   1.486       .  S
C421        C422   1.544       .  S
C421        C427   1.545       .  S
C421        C425   1.535       .  S
C421        C448   1.539       .  S
C422        H429   1.081       .  S
C422        C423   1.370       .  D
C423        C424   1.548       .  S
C423        C856   1.506       .  S
C424        C428   1.542       .  S
C424        C426   1.541       .  S
C424        H430   1.110       .  S
C425        H431   1.086       .  S
C425        C426   1.362       .  D
C426        C484   1.488       .  S
C427        H432   1.085       .  S
C427        C428   1.364       .  D
C428        C892   1.487       .  S
C433        C434   1.535       .  S
C433        C439   1.539       .  S
C433        C437   1.549       .  S
C433        C445   1.536       .  S
C434        H441   1.086       .  S
C434        C435   1.366       .  D
C435        C436   1.539       .  S
C435        C700   1.492       .  S
C436        C440   1.537       .  S
C436        C438   1.534       .  S
C436        H442   1.111       .  S
C437        H443   1.084       .  S
C437        C438   1.366       .  D
C438        C460   1.483       .  S
C439        H444   1.086       .  S
C439        C440   1.361       .  D
C440       C1096   1.473       .  S
C445        C446   1.409       .  A
C445        C450   1.418       .  A
C446        C447   1.402       .  A
C446        H451   1.081       .  S
C447        C448   1.420       .  A
C447        C454   1.444       .  S
C448        C449   1.409       .  A
C449        C450   1.400       .  A
C449        H452   1.083       .  S
C450        C453   1.445       .  S
C453        N455   1.157       .  T
C454        N456   1.157       .  T
C457        C458   1.398       .  A
C457        C462   1.409       .  A
C458        C459   1.398       .  A
C458        H463   1.080       .  S
C459        C460   1.411       .  A
C459        C466   1.442       .  S
C460        C461   1.406       .  A
C461        C462   1.403       .  A
C461        H464   1.085       .  S
C462        C465   1.444       .  S
C465        N467   1.157       .  T
C466        N468   1.157       .  T
C469        C470   1.409       .  A
C469        C474   1.416       .  A
C470        C471   1.400       .  A
C470        H475   1.080       .  S
C471        C472   1.419       .  A
C471        C478   1.439       .  S
C472        C473   1.414       .  A
C473        C474   1.405       .  A
C473        H476   1.084       .  S
C474        C477   1.444       .  S
C477        N479   1.157       .  T
C478        N480   1.156       .  T
C481        C482   1.407       .  A
C481        C486   1.413       .  A
C482        C483   1.405       .  A
C482        H487   1.085       .  S
C483        C484   1.411       .  A
C483        C490   1.443       .  S
C484        C485   1.399       .  A
C485        C486   1.402       .  A
C485        H488   1.080       .  S
C486        C489   1.440       .  S
C489        N491   1.156       .  T
C490        N492   1.157       .  T
C493        C494   1.408       .  A
C493        C498   1.419       .  A
C494        C495   1.402       .  A
C494        H499   1.083       .  S
C495        C496   1.418       .  A
C495        C502   1.444       .  S
C496        C497   1.410       .  A
C497        C498   1.403       .  A
C497        H500   1.082       .  S
C498        C501   1.445       .  S
C501        N503   1.158       .  T
C502        N504   1.157       .  T
C505        C506   1.403       .  A
C505        C510   1.413       .  A
C506        C507   1.401       .  A
C506        H511   1.076       .  S
C507        C508   1.417       .  A
C507        C514   1.442       .  S
C508        C509   1.406       .  A
C509        C510   1.401       .  A
C509        H512   1.085       .  S
C510        C513   1.442       .  S
C513        N515   1.157       .  T
C514        N516   1.157       .  T
C517        C518   1.409       .  A
C517        C522   1.415       .  A
C518        C519   1.400       .  A
C518        H523   1.083       .  S
C519        C520   1.419       .  A
C519        C526   1.440       .  S
C520        C521   1.412       .  A
C521        C522   1.401       .  A
C521        H524   1.085       .  S
C522        C525   1.444       .  S
C525        N527   1.157       .  T
C526        N528   1.157       .  T
C529        C530   1.408       .  A
C529        C534   1.411       .  A
C530        C531   1.408       .  A
C530        H535   1.085       .  S
C531        C532   1.413       .  A
C531        C538   1.443       .  S
C532        C533   1.406       .  A
C533        C534   1.399       .  A
C533        H536   1.085       .  S
C534        C537   1.443       .  S
C537        N539   1.157       .  T
C538        N540   1.157       .  T
C541        C542   1.410       .  A
C541        C546   1.421       .  A
C542        C543   1.411       .  A
C542        H547   1.079       .  S
C543        C544   1.425       .  A
C543        C550   1.440       .  S
C544        C545   1.411       .  A
C545        C546   1.405       .  A
C545        H548   1.084       .  S
C546        C549   1.444       .  S
C549        N551   1.157       .  T
C550        N552   1.157       .  T
C553        C554   1.407       .  A
C553        C558   1.416       .  A
C554        C555   1.403       .  A
C554        H559   1.085       .  S
C555        C556   1.414       .  A
C555        C562   1.443       .  S
C556        C557   1.405       .  A
C557        C558   1.405       .  A
C557        H560   1.084       .  S
C558        C561   1.441       .  S
C561        N563   1.157       .  T
C562        N564   1.157       .  T
C565        C566   1.406       .  A
C565        C570   1.417       .  A
C566        C567   1.401       .  A
C566        H571   1.085       .  S
C567        C568   1.414       .  A
C567        C574   1.445       .  S
C568        C569   1.401       .  A
C569        C570   1.403       .  A
C569        H572   1.085       .  S
C570        C573   1.441       .  S
C573        N575   1.157       .  T
C574        N576   1.157       .  T
C577        C578   1.410       .  A
C577        C582   1.419       .  A
C578        C579   1.404       .  A
C578        H583   1.083       .  S
C579        C580   1.420       .  A
C579        C586   1.445       .  S
C580        C581   1.409       .  A
C581        C582   1.403       .  A
C581        H584   1.082       .  S
C582        C585   1.443       .  S
C585        N587   1.157       .  T
C586        N588   1.158       .  T
C589        C590   1.407       .  A
C589        C594   1.417       .  A
C590        C591   1.401       .  A
C590        H595   1.085       .  S
C591        C592   1.412       .  A
C591        C598   1.440       .  S
C592        C593   1.405       .  A
C593        C594   1.403       .  A
C593        H596   1.079       .  S
C594        C597   1.442       .  S
C597        N599   1.158       .  T
C598        N600   1.156       .  T
C601        C602   1.405       .  A
C601        C606   1.415       .  A
C602        C603   1.404       .  A
C602        H607   1.085       .  S
C603        C604   1.412       .  A
C603        C610   1.443       .  S
C604        C605   1.405       .  A
C605        C606   1.401       .  A
C605        H608   1.084       .  S
C606        C609   1.445       .  S
C609        N611   1.157       .  T
C610        N612   1.157       .  T
C613        C614   1.410       .  A
C613        C618   1.417       .  A
C614        C615   1.401       .  A
C614        H619   1.080       .  S
C615        C616   1.418       .  A
C615        C622   1.443       .  S
C616        C617   1.410       .  A
C617        C618   1.400       .  A
C617        H620   1.084       .  S
C618        C621   1.445       .  S
C621        N623   1.157       .  T
C622        N624   1.158       .  T
C625        C626   1.407       .  A
C625        C630   1.413       .  A
C626        C627   1.400       .  A
C626        H631   1.084       .  S
C627        C628   1.410       .  A
C627        C634   1.444       .  S
C628        C629   1.399       .  A
C629        C630   1.399       .  A
C629        H632   1.077       .  S
C630        C633   1.442       .  S
C633        N635   1.157       .  T
C634        N636   1.157       .  T
C637        C638   1.406       .  A
C637        C642   1.415       .  A
C638        C639   1.402       .  A
C638        H643   1.085       .  S
C639        C640   1.412       .  A
C639        C646   1.444       .  S
C640        C641   1.404       .  A
C641        C642   1.406       .  A
C641        H644   1.085       .  S
C642        C645   1.443       .  S
C645        N647   1.157       .  T
C646        N648   1.157       .  T
C649        C650   1.405       .  A
C649        C654   1.412       .  A
C650        C651   1.402       .  A
C650        H655   1.085       .  S
C651        C652   1.408       .  A
C651        C658   1.443       .  S
C652        C653   1.399       .  A
C653        C654   1.402       .  A
C653        H656   1.085       .  S
C654        C657   1.438       .  S
C657        N659   1.156       .  T
C658        N660   1.157       .  T
C661        C662   1.410       .  A
C661        C666   1.420       .  A
C662        C663   1.406       .  A
C662        H667   1.082       .  S
C663        C664   1.421       .  A
C663        C670   1.444       .  S
C664        C665   1.408       .  A
C665        C666   1.404       .  A
C665        H668   1.083       .  S
C666        C669   1.443       .  S
C669        N671   1.157       .  T
C670        N672   1.157       .  T
C673        C674   1.403       .  A
C673        C678   1.410       .  A
C674        C675   1.402       .  A
C674        H679   1.085       .  S
C675        C676   1.410       .  A
C675        C682   1.444       .  S
C676        C677   1.403       .  A
C677        C678   1.403       .  A
C677        H680   1.085       .  S
C678        C681   1.443       .  S
C681        N683   1.157       .  T
C682        N684   1.157       .  T
C685        C686   1.405       .  A
C685        C690   1.416       .  A
C686        C687   1.405       .  A
C686        H691   1.085       .  S
C687        C688   1.413       .  A
C687        C694   1.443       .  S
C688        C689   1.405       .  A
C689        C690   1.402       .  A
C689        H692   1.085       .  S
C690        C693   1.444       .  S
C693        N695   1.157       .  T
C694        N696   1.157       .  T
C697        C698   1.405       .  A
C697        C702   1.415       .  A
C698        C699   1.399       .  A
C698        H703   1.084       .  S
C699        C700   1.415       .  A
C699        C706   1.444       .  S
C700        C701   1.404       .  A
C701        C702   1.404       .  A
C701        H704   1.084       .  S
C702        C705   1.443       .  S
C705        N707   1.157       .  T
C706        N708   1.157       .  T
C709        C710   1.401       .  A
C709        C714   1.411       .  A
C710        C711   1.403       .  A
C710        H715   1.085       .  S
C711        C712   1.411       .  A
C711        C718   1.443       .  S
C712        C713   1.401       .  A
C713        C714   1.401       .  A
C713        H716   1.085       .  S
C714        C717   1.444       .  S
C717        N719   1.157       .  T
C718        N720   1.157       .  T
C721        C722   1.408       .  A
C721        C726   1.420       .  A
C722        C723   1.401       .  A
C722        H727   1.082       .  S
C723        C724   1.419       .  A
C723        C730   1.444       .  S
C724        C725   1.411       .  A
C725        C726   1.405       .  A
C725        H728   1.082       .  S
C726        C729   1.445       .  S
C729        N731   1.158       .  T
C730        N732   1.157       .  T
C733        C734   1.406       .  A
C733        C738   1.416       .  A
C734        C735   1.404       .  A
C734        H739   1.084       .  S
C735        C736   1.415       .  A
C735        C742   1.439       .  S
C736        C737   1.407       .  A
C737        C738   1.398       .  A
C737        H740   1.084       .  S
C738        C741   1.442       .  S
C741        N743   1.157       .  T
C742        N744   1.156       .  T
C745        C746   1.406       .  A
C745        C750   1.413       .  A
C746        C747   1.406       .  A
C746        H751   1.085       .  S
C747        C748   1.412       .  A
C747        C754   1.443       .  S
C748        C749   1.407       .  A
C749        C750   1.400       .  A
C749        H752   1.084       .  S
C750        C753   1.444       .  S
C753        N755   1.157       .  T
C754        N756   1.157       .  T
C757        C758   1.408       .  A
C757        C762   1.418       .  A
C758        C759   1.399       .  A
C758        H763   1.084       .  S
C759        C760   1.415       .  A
C759        C766   1.444       .  S
C760        C761   1.408       .  A
C761        C762   1.400       .  A
C761        H764   1.080       .  S
C762        C765   1.444       .  S
C765        N767   1.158       .  T
C766        N768   1.157       .  T
C769        C770   1.406       .  A
C769        C774   1.416       .  A
C770        C771   1.407       .  A
C770        H775   1.085       .  S
C771        C772   1.413       .  A
C771        C778   1.443       .  S
C772        C773   1.404       .  A
C773        C774   1.400       .  A
C773        H776   1.085       .  S
C774        C777   1.444       .  S
C777        N779   1.157       .  T
C778        N780   1.157       .  T
C781        C782   1.407       .  A
C781        C786   1.413       .  A
C782        C783   1.406       .  A
C782        H787   1.078       .  S
C783        C784   1.407       .  A
C783        C790   1.444       .  S
C784        C785   1.405       .  A
C785        C786   1.400       .  A
C785        H788   1.085       .  S
C786        C789   1.444       .  S
C789        N791   1.157       .  T
C790        N792   1.157       .  T
C793        C794   1.402       .  A
C793        C798   1.413       .  A
C794        C795   1.404       .  A
C794        H799   1.085       .  S
C795        C796   1.414       .  A
C795        C802   1.439       .  S
C796        C797   1.408       .  A
C797        C798   1.407       .  A
C797        H800   1.084       .  S
C798        C801   1.443       .  S
C801        N803   1.157       .  T
C802        N804   1.156       .  T
C805        C806   1.409       .  A
C805        C810   1.421       .  A
C806        C807   1.406       .  A
C806        H811   1.082       .  S
C807        C808   1.422       .  A
C807        C814   1.444       .  S
C808        C809   1.407       .  A
C809        C810   1.402       .  A
C809        H812   1.084       .  S
C810        C813   1.444       .  S
C813        N815   1.157       .  T
C814        N816   1.158       .  T
C817        C818   1.410       .  A
C817        C822   1.419       .  A
C818        C819   1.406       .  A
C818        H823   1.084       .  S
C819        C820   1.418       .  A
C819        C826   1.444       .  S
C820        C821   1.404       .  A
C821        C822   1.405       .  A
C821        H824   1.077       .  S
C822        C825   1.440       .  S
C825        N827   1.157       .  T
C826        N828   1.158       .  T
C829        C830   1.404       .  A
C829        C834   1.416       .  A
C830        C831   1.399       .  A
C830        H835   1.085       .  S
C831        C832   1.417       .  A
C831        C838   1.443       .  S
C832        C833   1.408       .  A
C833        C834   1.408       .  A
C833        H836   1.084       .  S
C834        C837   1.443       .  S
C837        N839   1.157       .  T
C838        N840   1.157       .  T
C841        C842   1.400       .  A
C841        C846   1.408       .  A
C842        C843   1.401       .  A
C842        H847   1.085       .  S
C843        C844   1.409       .  A
C843        C850   1.440       .  S
C844        C845   1.404       .  A
C845        C846   1.404       .  A
C845        H848   1.085       .  S
C846        C849   1.443       .  S
C849        N851   1.157       .  T
C850        N852   1.156       .  T
C853        C854   1.411       .  A
C853        C858   1.422       .  A
C854        C855   1.407       .  A
C854        H859   1.084       .  S
C855        C856   1.416       .  A
C855        C862   1.444       .  S
C856        C857   1.401       .  A
C857        C858   1.403       .  A
C857        H860   1.079       .  S
C858        C861   1.441       .  S
C861        N863   1.157       .  T
C862        N864   1.157       .  T
C865        C866   1.411       .  A
C865        C870   1.419       .  A
C866        C867   1.407       .  A
C866        H871   1.081       .  S
C867        C868   1.423       .  A
C867        C874   1.443       .  S
C868        C869   1.410       .  A
C869        C870   1.405       .  A
C869        H872   1.084       .  S
C870        C873   1.444       .  S
C873        N875   1.157       .  T
C874        N876   1.158       .  T
C877        C878   1.402       .  A
C877        C882   1.406       .  A
C878        C879   1.401       .  A
C878        H883   1.086       .  S
C879        C880   1.412       .  A
C879        C886   1.443       .  S
C880        C881   1.410       .  A
C881        C882   1.405       .  A
C881        H884   1.085       .  S
C882        C885   1.443       .  S
C885        N887   1.157       .  T
C886        N888   1.157       .  T
C889        C890   1.404       .  A
C889        C894   1.412       .  A
C890        C891   1.408       .  A
C890        H895   1.085       .  S
C891        C892   1.415       .  A
C891        C898   1.444       .  S
C892        C893   1.400       .  A
C893        C894   1.398       .  A
C893        H896   1.085       .  S
C894        C897   1.444       .  S
C897        N899   1.157       .  T
C898        N900   1.157       .  T
C901        C902   1.403       .  A
C901        C906   1.412       .  A
C902        C903   1.399       .  A
C902        H907   1.084       .  S
C903        C904   1.414       .  A
C903        C910   1.444       .  S
C904        C905   1.403       .  A
C905        C906   1.393       .  A
C905        H908   1.085       .  S
C906        C909   1.445       .  S
C909        N911   1.157       .  T
C910        N912   1.157   1_655  T
C913        C914   1.403       .  A
C913        C918   1.411       .  A
C914        C915   1.407       .  A
C914        H919   1.085       .  S
C915        C916   1.414       .  A
C915        C922   1.443       .  S
C916        C917   1.401       .  A
C917        C918   1.398       .  A
C917        H920   1.085       .  S
C918        C921   1.444       .  S
C921        N923   1.157       .  T
C922        N924   1.157       .  T
C925        C926   1.405       .  A
C925        C930   1.405       .  A
C926        C927   1.404       .  A
C926        H931   1.085       .  S
C927        C928   1.415       .  A
C927        C934   1.443       .  S
C928        C929   1.413       .  A
C929        C930   1.404       .  A
C929        H932   1.084       .  S
C930        C933   1.443       .  S
C933        N935   1.157       .  T
C934        N936   1.157       .  T
C937        C938   1.399       .  A
C937        C942   1.408       .  A
C938        C939   1.398       .  A
C938        H943   1.085   1_655  S
C939        C940   1.409       .  A
C939        C946   1.443   1_655  S
C940        C941   1.402       .  A
C941        C942   1.398       .  A
C941        H944   1.085       .  S
C942        C945   1.445       .  S
C945        N947   1.157       .  T
C946        N948   1.157       .  T
C949        C950   1.402       .  A
C949        C954   1.411       .  A
C950        C951   1.406       .  A
C950        H955   1.085       .  S
C951        C952   1.415       .  A
C951        C958   1.442       .  S
C952        C953   1.405       .  A
C953        C954   1.401       .  A
C953        H956   1.085       .  S
C954        C957   1.445       .  S
C957        N959   1.157       .  T
C958        N960   1.157       .  T
C961        C962   1.403       .  A
C961        C966   1.408       .  A
C962        C963   1.402       .  A
C962        H967   1.085       .  S
C963        C964   1.411       .  A
C963        C970   1.443       .  S
C964        C965   1.407       .  A
C965        C966   1.399       .  A
C965        H968   1.085       .  S
C966        C969   1.444       .  S
C969        N971   1.157       .  T
C970        N972   1.157       .  T
C973        C974   1.404       .  A
C973        C978   1.408       .  A
C974        C975   1.401       .  A
C974        H979   1.085       .  S
C975        C976   1.409       .  A
C975        C982   1.444   1_655  S
C976        C977   1.401       .  A
C977        C978   1.394       .  A
C977        H980   1.085       .  S
C978        C981   1.444       .  S
C981        N983   1.157       .  T
C982        N984   1.157       .  T
C985        C986   1.400   1_655  A
C985        C990   1.408       .  A
C986        C987   1.398       .  A
C986        H991   1.085       .  S
C987        C988   1.408   1_455  A
C987        C994   1.443       .  S
C988        C989   1.401       .  A
C989        C990   1.398       .  A
C989        H992   1.085       .  S
C990        C993   1.444       .  S
C993        N995   1.157       .  T
C994        N996   1.157       .  T
C997        C998   1.402       .  A
C997       C1002   1.409       .  A
C998        C999   1.398       .  A
C998       H1003   1.085       .  S
C999       C1000   1.415       .  A
C999       C1006   1.443       .  S
C1000      C1001   1.412       .  A
C1001      C1002   1.406       .  A
C1001      H1004   1.084       .  S
C1002      C1005   1.443       .  S
C1005      N1007   1.157       .  T
C1006      N1008   1.157       .  T
C1009      C1010   1.405       .  A
C1009      C1014   1.414       .  A
C1010      C1011   1.398       .  A
C1010      H1015   1.085       .  S
C1011      C1012   1.409       .  A
C1011      C1018   1.445       .  S
C1012      C1013   1.402       .  A
C1013      C1014   1.405       .  A
C1013      H1016   1.083       .  S
C1014      C1017   1.444       .  S
C1017      N1019   1.157       .  T
C1018      N1020   1.157       .  T
C1021      C1022   1.406       .  A
C1021      C1026   1.415       .  A
C1022      C1023   1.407       .  A
C1022      H1027   1.084       .  S
C1023      C1024   1.409       .  A
C1023      C1030   1.443       .  S
C1024      C1025   1.398       .  A
C1025      C1026   1.395       .  A
C1025      H1028   1.085       .  S
C1026      C1029   1.445       .  S
C1029      N1031   1.157       .  T
C1030      N1032   1.157       .  T
C1033      C1034   1.403       .  A
C1033      C1038   1.412       .  A
C1034      C1035   1.393       .  A
C1034      H1039   1.085       .  S
C1035      C1036   1.411       .  A
C1035      C1042   1.441       .  S
C1036      C1037   1.412       .  A
C1037      C1038   1.412       .  A
C1037      H1040   1.084       .  S
C1038      C1041   1.443       .  S
C1041      N1043   1.158       .  T
C1042      N1044   1.156       .  T
C1045      C1046   1.404   1_545  A
C1045      C1050   1.415       .  A
C1046      C1047   1.395       .  A
C1046      H1051   1.085       .  S
C1047      C1048   1.415   1_565  A
C1047      C1054   1.445       .  S
C1048      C1049   1.407       .  A
C1049      C1050   1.402       .  A
C1049      H1052   1.085       .  S
C1050      C1053   1.445       .  S
C1053      N1055   1.158       .  T
C1054      N1056   1.157       .  T
C1057      C1058   1.403       .  A
C1057      C1062   1.408       .  A
C1058      C1059   1.408       .  A
C1058      H1063   1.084       .  S
C1059      C1060   1.416       .  A
C1059      C1066   1.444       .  S
C1060      C1061   1.401       .  A
C1061      C1062   1.395       .  A
C1061      H1064   1.082       .  S
C1062      C1065   1.446       .  S
C1065      N1067   1.157       .  T
C1066      N1068   1.157       .  T
C1069      C1070   1.405       .  A
C1069      C1074   1.413       .  A
C1070      C1071   1.397       .  A
C1070      H1075   1.085       .  S
C1071      C1072   1.406       .  A
C1071      C1078   1.442       .  S
C1072      C1073   1.406       .  A
C1073      C1074   1.408       .  A
C1073      H1076   1.085       .  S
C1074      C1077   1.443       .  S
C1077      N1079   1.157       .  T
C1078      N1080   1.156       .  T
C1081      C1082   1.401       .  A
C1081      C1086   1.408   1_545  A
C1082      C1083   1.397       .  A
C1082      H1087   1.085       .  S
C1083      C1084   1.408       .  A
C1083      C1090   1.446       .  S
C1084      C1085   1.401   1_545  A
C1085      C1086   1.399       .  A
C1085      H1088   1.085       .  S
C1086      C1089   1.445       .  S
C1089      N1091   1.157       .  T
C1090      N1092   1.157       .  T
C1093      C1094   1.403       .  A
C1093      C1098   1.409       .  A
C1094      C1095   1.399       .  A
C1094      H1099   1.085       .  S
C1095      C1096   1.408       .  A
C1095      C1102   1.444       .  S
C1096      C1097   1.401       .  A
C1097      C1098   1.401       .  A
C1097      H1100   1.085       .  S
C1098      C1101   1.443       .  S
C1101      N1103   1.157       .  T
C1102      N1104   1.157       .  T
C1105      C1106   1.405       .  A
C1105      C1110   1.412       .  A
C1106      C1107   1.396       .  A
C1106      H1111   1.085       .  S
C1107      C1108   1.409       .  A
C1107      C1114   1.441       .  S
C1108      C1109   1.408       .  A
C1109      C1110   1.407       .  A
C1109      H1112   1.084       .  S
C1110      C1113   1.442       .  S
C1113      N1115   1.157       .  T
C1114      N1116   1.156       .  T
C1117      C1118   1.404       .  A
C1117      C1122   1.415   1_565  A
C1118      C1119   1.398       .  A
C1118      H1123   1.085       .  S
C1119      C1120   1.413   1_565  A
C1119      C1126   1.445       .  S
C1120      C1121   1.402       .  A
C1121      C1122   1.398       .  A
C1121      H1124   1.085       .  S
C1122      C1125   1.445       .  S
C1125      N1127   1.157       .  T
C1126      N1128   1.157       .  T
C1129      C1130   1.401       .  A
C1129      C1134   1.408   1_565  A
C1130      C1131   1.399       .  A
C1130      H1135   1.085       .  S
C1131      C1132   1.408       .  A
C1131      C1138   1.444       .  S
C1132      C1133   1.402   1_565  A
C1133      C1134   1.399       .  A
C1133      H1136   1.085       .  S
C1134      C1137   1.444       .  S
C1137      N1139   1.157       .  T
C1138      N1140   1.157       .  T
C1141      C1142   1.407       .  A
C1141      C1146   1.418       .  A
C1142      C1143   1.408       .  A
C1142      H1147   1.084       .  S
C1143      C1144   1.413       .  A
C1143      C1150   1.443       .  S
C1144      C1145   1.399       .  A
C1145      C1146   1.395       .  A
C1145      H1148   1.085       .  S
C1146      C1149   1.446       .  S
C1149      N1151   1.157       .  T
C1150      N1152   1.157       .  T
C1153      C1154   1.403       .  A
C1153      C1158   1.409       .  A
C1154      C1155   1.405       .  A
C1154      H1159   1.085       .  S
C1155      C1156   1.413       .  A
C1155      C1162   1.443       .  S
C1156      C1157   1.399       .  A
C1157      C1158   1.398       .  A
C1157      H1160   1.079       .  S
C1158      C1161   1.445       .  S
C1161      N1163   1.157       .  T
C1162      N1164   1.157       .  T
C1165      C1166   1.408       .  A
C1165      C1170   1.413       .  A
C1166      C1167   1.402       .  A
C1166      H1171   1.085       .  S
C1167      C1168   1.411       .  A
C1167      C1174   1.443       .  S
C1168      C1169   1.406       .  A
C1169      C1170   1.405       .  A
C1169      H1172   1.085       .  S
C1170      C1173   1.442       .  S
C1173      N1175   1.157       .  T
C1174      N1176   1.157       .  T
C1177      C1178   1.402       .  A
C1177      C1182   1.410       .  A
C1178      C1179   1.402       .  A
C1178      H1183   1.085       .  S
C1179      C1180   1.411       .  A
C1179      C1186   1.443       .  S
C1180      C1181   1.403       .  A
C1181      C1182   1.402       .  A
C1181      H1184   1.085       .  S
C1182      C1185   1.444       .  S
C1185      N1187   1.157       .  T
C1186      N1188   1.157       .  T
C1189      C1190   1.402       .  A
C1189      C1194   1.411       .  A
C1190      C1191   1.393       .  A
C1190      H1195   1.085   1_556  S
C1191      C1192   1.412       .  A
C1191      C1198   1.445   1_556  S
C1192      C1193   1.405       .  A
C1193      C1194   1.399       .  A
C1193      H1196   1.085       .  S
C1194      C1197   1.444       .  S
C1197      N1199   1.157       .  T
C1198      N1200   1.157       .  T
C1201      C1202   1.406       .  A
C1201      C1206   1.420       .  A
C1202      C1203   1.410       .  A
C1202      H1207   1.084       .  S
C1203      C1204   1.418       .  A
C1203      C1210   1.443       .  S
C1204      C1205   1.402       .  A
C1205      C1206   1.401       .  A
C1205      H1208   1.083       .  S
C1206      C1209   1.445       .  S
C1209      N1211   1.157       .  T
C1210      N1212   1.157       .  T
C1213      C1214   1.402       .  A
C1213      C1218   1.410       .  A
C1214      C1215   1.401       .  A
C1214      H1219   1.085       .  S
C1215      C1216   1.410       .  A
C1215      C1222   1.442       .  S
C1216      C1217   1.404       .  A
C1217      C1218   1.403       .  A
C1217      H1220   1.085       .  S
C1218      C1221   1.444       .  S
C1221      N1223   1.157       .  T
C1222      N1224   1.157       .  T
C1225      C1226   1.401   1_556  A
C1225      C1230   1.406       .  A
C1226      C1227   1.397       .  A
C1226      H1231   1.085       .  S
C1227      C1228   1.408   1_554  A
C1227      C1234   1.445       .  S
C1228      C1229   1.402       .  A
C1229      C1230   1.397       .  A
C1229      H1232   1.085       .  S
C1230      C1233   1.444       .  S
C1233      N1235   1.157       .  T
C1234      N1236   1.157       .  T
C1237      C1238   1.399       .  A
C1237      C1242   1.408       .  A
C1238      C1239   1.397       .  A
C1238      H1243   1.085       .  S
C1239      C1240   1.418       .  A
C1239      C1246   1.446       .  S
C1240      C1241   1.406       .  A
C1241      C1242   1.404       .  A
C1241      H1244   1.084       .  S
C1242      C1245   1.443       .  S
C1245      N1247   1.157       .  T
C1246      N1248   1.158       .  T
C1249      C1250   1.403       .  A
C1249      C1254   1.418       .  A
C1250      C1251   1.400       .  A
C1250      H1255   1.077       .  S
C1251      C1252   1.409       .  A
C1251      C1258   1.445       .  S
C1252      C1253   1.401       .  A
C1253      C1254   1.406       .  A
C1253      H1256   1.085       .  S
C1254      C1257   1.443       .  S
C1257      N1259   1.157       .  T
C1258      N1260   1.157       .  T
C1261      C1262   1.406       .  A
C1261      C1266   1.414       .  A
C1262      C1263   1.402       .  A
C1262      H1267   1.085       .  S
C1263      C1264   1.415       .  A
C1263      C1270   1.445       .  S
C1264      C1265   1.403       .  A
C1265      C1266   1.396       .  A
C1265      H1268   1.085       .  S
C1266      C1269   1.445       .  S
C1269      N1271   1.157       .  T
C1270      N1272   1.158       .  T
C1273      C1274   1.401   1_556  A
C1273      C1278   1.409       .  A
C1274      C1275   1.397       .  A
C1274      H1279   1.086       .  S
C1275      C1276   1.409       .  A
C1275      C1282   1.445       .  S
C1276      C1277   1.401   1_554  A
C1277      C1278   1.398       .  A
C1277      H1280   1.085       .  S
C1278      C1281   1.444       .  S
C1281      N1283   1.157       .  T
C1282      N1284   1.157       .  T
C1285      C1286   1.400       .  A
C1285      C1290   1.409       .  A
C1286      C1287   1.400       .  A
C1286      H1291   1.085       .  S
C1287      C1288   1.412       .  A
C1287      C1294   1.444       .  S
C1288      C1289   1.402       .  A
C1289      C1290   1.401       .  A
C1289      H1292   1.085       .  S
C1290      C1293   1.443       .  S
C1293      N1295   1.157       .  T
C1294      N1296   1.157       .  T
C1297      C1298   1.403       .  A
C1297      C1302   1.410       .  A
C1298      C1299   1.402       .  A
C1298      H1303   1.085       .  S
C1299      C1300   1.409       .  A
C1299      C1306   1.444       .  S
C1300      C1301   1.403       .  A
C1301      C1302   1.405       .  A
C1301      H1304   1.084       .  S
C1302      C1305   1.444       .  S
C1305      N1307   1.157       .  T
C1306      N1308   1.157       .  T
