geometry optimzed in LAMMPS
_audit_creation_date              2020-11-30 
_audit_creation_method            'lammps2cif' 
_symmetry_space_group_name_H-M    'P1' 
_symmetry_Int_Tables_number       1 
_symmetry_cell_setting            triclinic 
loop_ 
_symmetry_equiv_pos_as_xyz 
  x,y,z 
_cell_length_a                    36.83174553 
_cell_length_b                    36.864662148072306 
_cell_length_c                    29.035485679508117 
_cell_angle_alpha                 89.99364072302258 
_cell_angle_beta                  89.99600309669964 
_cell_angle_gamma                 90.00458570931688 
loop_ 
_atom_site_label 
_atom_site_type_symbol 
_atom_site_fract_x 
_atom_site_fract_y 
_atom_site_fract_z 
_atom_site_charge 
C1          C  0.58852253  0.88901122  0.43552904     0.89100
C2          C  0.59216674  0.93005810  0.44317688    -0.51100
C3          C  0.57579221  0.93892111  0.98345878     0.12000
C4          C  0.55920887  0.90900899  0.01376421     0.23000
C5          C  0.60803082  0.87130994  0.47651843    -0.51900
C6          C  0.58883424  0.87991541  0.01664108     0.12100
C7          C  0.54799942  0.88119951  0.44292506    -0.51400
C8          C  0.52914577  0.89236540  0.98349908     0.12700
H9          H  0.60311615  0.94862841  0.41763990     0.17200
H10         H  0.54946032  0.91887146  0.04775726     0.02900
H11         H  0.62179962  0.84736933  0.97135984     0.17500
H12         H  0.53066478  0.86883605  0.41702621     0.17300
C13         C  0.43742068  0.88958393  0.04659516     0.89100
C14         C  0.43346928  0.93049978  0.03876535    -0.51100
C15         C  0.44901199  0.93698049  0.49585891     0.12000
C16         C  0.46653313  0.90723795  0.46619594     0.23000
C17         C  0.41771817  0.87166408  0.00583952    -0.51900
C18         C  0.43751636  0.87756669  0.46293492     0.12100
C19         C  0.47799660  0.88199718  0.03879994    -0.51400
C20         C  0.49646134  0.89133002  0.49728432     0.12700
H21         H  0.42244802  0.94907839  0.06424744     0.17200
H22         H  0.47656284  0.91711587  0.43233814     0.02900
H23         H  0.40448847  0.84478222  0.50800562     0.17500
H24         H  0.49558665  0.86989470  0.06461245     0.17300
C25         C  0.43919049  0.02797264  0.43334165     0.89100
C26         C  0.43594151  0.98680891  0.44001636    -0.51100
C27         C  0.44677368  0.97991458  0.98278739     0.12000
C28         C  0.46311792  0.00970642  0.01342325     0.23000
C29         C  0.41879674  0.04483910  0.47428656    -0.51900
C30         C  0.43333488  0.03854901  0.01658001     0.12100
C31         C  0.47954338  0.03617134  0.44194633    -0.51400
C32         C  0.49308639  0.02673823  0.98349671     0.12700
H33         H  0.42537628  0.96844826  0.41399114     0.17200
H34         H  0.47289700  0.99968665  0.04733147     0.02900
H35         H  0.40018957  0.07117730  0.97146464     0.17500
H36         H  0.49717946  0.04902817  0.41677240     0.17300
C37         C  0.58505038  0.03004975  0.04588573     0.89100
C38         C  0.58897236  0.98898638  0.03888846    -0.51100
C39         C  0.57772412  0.97970164  0.49889851     0.12000
C40         C  0.56079744  0.00922162  0.46819027     0.23000
C41         C  0.60436140  0.04747480  0.00448900    -0.51900
C42         C  0.58972384  0.03899248  0.46557532     0.12100
C43         C  0.54439981  0.03751115  0.03842021    -0.51400
C44         C  0.53017479  0.02547171  0.49781320     0.12700
H45         H  0.60029077  0.97075988  0.06456389     0.17200
H46         H  0.55151378  0.99910888  0.43410809     0.02900
H47         H  0.62133915  0.07259344  0.51126347     0.17500
H48         H  0.52698965  0.05007124  0.06407801     0.17300
C49         C  0.94269026  0.53331258  0.06172735     0.89100
C50         C  0.98366138  0.53826324  0.05478298    -0.51100
C51         C  0.99013953  0.52190462  0.51483066     0.12000
C52         C  0.96085589  0.50519951  0.48343731     0.23000
C53         C  0.92484849  0.55117346  0.01967914    -0.51900
C54         C  0.93148375  0.53469003  0.47964985     0.12100
C55         C  0.93641158  0.49237424  0.05578454    -0.51400
C56         C  0.94387903  0.47499496  0.51330824     0.12700
H57         H  0.00149845  0.55054651  0.08020258     0.17200
H58         H  0.97144815  0.49549026  0.44978968     0.02900
H59         H  0.89775863  0.56712765  0.52426848     0.17500
H60         H  0.92424226  0.47524172  0.08204131     0.17300
C61         C  0.94148099  0.38145352  0.45512579     0.89100
C62         C  0.98221542  0.37668678  0.46431535    -0.51100
C63         C  0.99640862  0.39457279  0.00482994     0.12000
C64         C  0.96600902  0.41110884  0.03457467     0.23000
C65         C  0.92231413  0.36397180  0.49661358    -0.51900
C66         C  0.93733714  0.38102063  0.03839783     0.12100
C67         C  0.93494613  0.42241897  0.46005922    -0.51400
C68         C  0.94882884  0.44011995  0.00314612     0.12700
H69         H  0.00092795  0.36456997  0.43980427     0.17200
H70         H  0.97558654  0.42182364  0.06822295     0.02900
H71         H  0.90552623  0.34663651  0.99392247     0.17500
H72         H  0.92324912  0.43919833  0.43309980     0.17300
C73         C  0.08829716  0.38837849  0.06636378     0.89100
C74         C  0.04721436  0.38365256  0.06001701    -0.51100
C75         C  0.03161145  0.39234209  0.51954195     0.12000
C76         C  0.06065465  0.40933346  0.48824641     0.23000
C77         C  0.10571690  0.36874099  0.02522436    -0.51900
C78         C  0.08986015  0.38001262  0.48380797     0.12100
C79         C  0.09501772  0.42897552  0.05781640    -0.51400
C80         C  0.07791874  0.43928975  0.51797311     0.12700
H81         H  0.02940489  0.37230483  0.08615446     0.17200
H82         H  0.04989459  0.41921531  0.45475204     0.02900
H83         H  0.12400292  0.34723427  0.52743408     0.17500
H84         H  0.10737264  0.44697475  0.08296528     0.17300
C85         C  0.08260264  0.53075557  0.45502292     0.89100
C86         C  0.04141993  0.53496949  0.46101854    -0.51100
C87         C  0.03447624  0.52478149  0.00074398     0.12000
C88         C  0.06414445  0.50894717  0.03211796     0.23000
C89         C  0.09957449  0.55018948  0.49660127    -0.51900
C90         C  0.09244277  0.53924385  0.03620352     0.12100
C91         C  0.08968639  0.49018378  0.46309688    -0.51400
C92         C  0.08230962  0.47943629  0.00249023     0.12700
H93         H  0.02363452  0.54607904  0.43468588     0.17200
H94         H  0.05377155  0.49885711  0.06570709     0.02900
H95         H  0.12524291  0.57300037  0.99206576     0.17500
H96         H  0.10254757  0.47255185  0.43793087     0.17300
O97         O  0.63586778  0.86138241  0.27874797    -0.55200
C98         C  0.62490804  0.84107666  0.13985226     0.77400
O99         O  0.68359733  0.76308014  0.25017906    -0.56400
C100        C  0.62169348  0.84497106  0.31253135     0.77400
C101        C  0.58214345  0.75308706  0.21721965     0.79800
Cd102      Cd  0.63749695  0.80700792  0.22757147     1.37500
O103        O  0.61793009  0.85732675  0.17714417    -0.55200
O104        O  0.57508128  0.78620214  0.22385983    -0.54000
C105        C  0.71075810  0.78160690  0.23801179     0.79700
O106        O  0.61521012  0.74407730  0.21534184    -0.56400
O107        O  0.63982527  0.81032554  0.14283772    -0.54800
O108        O  0.61573852  0.81147870  0.30758934    -0.54800
O109        O  0.70464704  0.81272142  0.22136546    -0.54000
O110        O  0.38495002  0.85825693  0.30938279    -0.55200
C111        C  0.39980459  0.84795119  0.16912728     0.77400
O112        O  0.39559606  0.74628448  0.22471028    -0.56400
C113        C  0.40037311  0.83887259  0.33962131     0.77400
C114        C  0.30434839  0.78830566  0.25956784     0.79800
Cd115      Cd  0.37977431  0.80848111  0.25170377     1.37500
O116        O  0.40298478  0.86233985  0.20846600    -0.55200
O117        O  0.31310240  0.81794436  0.24064722    -0.54000
C118        C  0.42861067  0.74971837  0.23582363     0.79700
O119        O  0.32974896  0.76936932  0.27598953    -0.56400
O120        O  0.38582228  0.81672503  0.16771886    -0.54800
O121        O  0.40535435  0.80588963  0.32985085    -0.54800
O122        O  0.43797846  0.77895008  0.25508515    -0.54000
O123        O  0.91494695  0.32618173  0.30194733    -0.55200
C124        C  0.89630544  0.34401343  0.16072489     0.77400
O125        O  0.81714929  0.27695941  0.24894385    -0.56400
C126        C  0.89921390  0.34495787  0.33243210     0.77400
C127        C  0.80355519  0.37618295  0.24708927     0.79800
Cd128      Cd  0.86209370  0.32552242  0.24743432     1.36700
O129        O  0.91278840  0.34776377  0.19861266    -0.55200
O130        O  0.83324314  0.38220607  0.22664560    -0.54000
C131        C  0.83898966  0.25067318  0.24875332     0.79700
O132        O  0.79984186  0.34585532  0.26687988    -0.56400
O133        O  0.86496051  0.33013994  0.16235301    -0.54800
O134        O  0.86687828  0.35408403  0.32423988    -0.54800
O135        O  0.87244988  0.25825917  0.24756126    -0.54000
O136        O  0.91050753  0.56960423  0.31929104    -0.55200
C137        C  0.89764402  0.56996292  0.18250751     0.77400
O138        O  0.79619411  0.56349837  0.27156525    -0.56400
C139        C  0.89233065  0.57144020  0.35614222     0.77400
C140        C  0.83416378  0.65982858  0.25887926     0.79800
Cd141      Cd  0.85954221  0.58621499  0.26726852     1.37500
O142        O  0.91456671  0.58164552  0.21737936    -0.55200
O143        O  0.86620257  0.65360414  0.27241024    -0.54000
C144        C  0.80550499  0.53058565  0.26875520     0.79700
O145        O  0.81475986  0.63273171  0.24920523    -0.56400
O146        O  0.86362424  0.56732812  0.18603624    -0.54800
O147        O  0.85980453  0.58197139  0.35258251    -0.54800
O148        O  0.83907594  0.52374265  0.26660631    -0.54000
O149        O  0.37416544  0.10032756  0.14448997    -0.55200
C150        C  0.40343321  0.07114697  0.31080986     0.77400
O151        O  0.43421302  0.14376890  0.20230645    -0.56400
C152        C  0.39711687  0.07504352  0.14110832     0.77400
C153        C  0.30726388  0.13225445  0.23498712     0.79800
Cd154      Cd  0.38176898  0.10964276  0.22825724     1.37500
O155        O  0.38154180  0.05681464  0.28251759    -0.55200
O156        O  0.31643683  0.10073501  0.24763526    -0.54000
C157        C  0.43054304  0.17001241  0.22985367     0.79700
O158        O  0.33174081  0.15214481  0.21808191    -0.56400
O159        O  0.41495621  0.10244158  0.30110648    -0.54800
O160        O  0.41133616  0.06387161  0.17809019    -0.54800
O161        O  0.40291760  0.16988821  0.25572026    -0.54000
O162        O  0.63525643  0.06039143  0.30939701    -0.55200
C163        C  0.62193950  0.07221472  0.16861506     0.77400
O164        O  0.61779672  0.17517075  0.25746194    -0.56400
C165        C  0.62320484  0.07975661  0.34192829     0.77400
C166        C  0.71432356  0.13180407  0.25294478     0.79800
Cd167      Cd  0.63890515  0.11091005  0.25276314     1.37500
O168        O  0.61210790  0.06040404  0.20752136    -0.55200
O169        O  0.70555839  0.09894219  0.25876188    -0.54000
C170        C  0.58556806  0.16735880  0.24622610     0.79700
O171        O  0.68883756  0.15417007  0.24688232    -0.56400
O172        O  0.64135241  0.10048415  0.16841715    -0.54800
O173        O  0.61938207  0.11316825  0.33389825    -0.54800
O174        O  0.57866670  0.13449409  0.23773015    -0.54000
O175        O  0.11306548  0.33685334  0.22133599    -0.55200
C176        C  0.12917247  0.34504660  0.36009207     0.77400
O177        O  0.20785434  0.28005176  0.28875726    -0.56400
C178        C  0.13070158  0.35246652  0.18955453     0.77400
C179        C  0.22296264  0.38411991  0.27507162     0.79800
Cd180      Cd  0.16629846  0.33095923  0.27428241     1.37500
O181        O  0.11416439  0.35184006  0.32187077    -0.55200
O182        O  0.19442425  0.38753163  0.29878782    -0.54000
C183        C  0.18894889  0.25607865  0.26912039     0.79700
O184        O  0.22655330  0.35523812  0.25206013    -0.56400
O185        O  0.15989924  0.32991159  0.35876804    -0.54800
O186        O  0.16414390  0.35750354  0.19650750    -0.54800
O187        O  0.15862677  0.26593265  0.25310928    -0.54000
O188        O  0.11166163  0.57425984  0.19722403    -0.55200
C189        C  0.12652340  0.56799353  0.33318754     0.77400
O190        O  0.22570529  0.57014320  0.26805275    -0.56400
C191        C  0.13011491  0.57530670  0.16050760     0.77400
C192        C  0.18302236  0.66599660  0.25216481     0.79800
Cd193      Cd  0.16315706  0.59030178  0.24903124     1.37500
O194        O  0.10924260  0.57192195  0.29589103    -0.55200
O195        O  0.15100187  0.65646211  0.26227168    -0.54000
C196        C  0.22135802  0.53895943  0.25092669     0.79700
O197        O  0.20450005  0.64135004  0.23948840    -0.56400
O198        O  0.16000821  0.57524823  0.33217253    -0.54800
O199        O  0.16283016  0.58513286  0.16415636    -0.54800
O200        O  0.19111241  0.53219952  0.23236523    -0.54000
C201        C  0.24825254  0.41344175  0.27177153    -0.15900
C202        C  0.26036772  0.44347085  0.26693486     0.08200
C203        C  0.26051330  0.48118740  0.26014047     0.10000
C204        C  0.24801159  0.51099421  0.25495283    -0.16800
C205        C  0.20252550  0.21986117  0.26346105    -0.15900
C206        C  0.21919062  0.19219981  0.25691561     0.08200
C207        C  0.24472604  0.16448946  0.24830667     0.10000
C208        C  0.27128966  0.14620805  0.24142191    -0.16800
C209        C  0.45882818  0.19637986  0.23409455    -0.15900
C210        C  0.48917855  0.20802275  0.23777730     0.08200
C211        C  0.52722495  0.20677599  0.24153051     0.10000
C212        C  0.55709723  0.19374278  0.24403613    -0.16800
C213        C  0.75133955  0.14401312  0.25324901    -0.15900
C214        C  0.77951359  0.16066515  0.25270740     0.08200
C215        C  0.80738600  0.18693829  0.25135019     0.10000
C216        C  0.82549077  0.21416501  0.25001342    -0.16800
C217        C  0.77703868  0.40430503  0.25058233    -0.15900
C218        C  0.76515402  0.43436355  0.25564965     0.08200
C219        C  0.76654638  0.47203785  0.26240229     0.10000
C220        C  0.77970648  0.50165110  0.26683481    -0.16800
C221        C  0.26764253  0.77518883  0.26066321    -0.15900
C222        C  0.24005419  0.75755818  0.26030552     0.08200
C223        C  0.21303134  0.73039231  0.25842792     0.10000
C224        C  0.19561152  0.70275729  0.25581634    -0.16800
C225        C  0.74667551  0.76700601  0.24229217    -0.15900
C226        C  0.77394957  0.74924851  0.24631463     0.08200
C227        C  0.80122248  0.72266489  0.25118615     0.10000
C228        C  0.81950288  0.69573690  0.25507960    -0.16800
C229        C  0.55321820  0.72740848  0.21288293    -0.15900
C230        C  0.52347429  0.71398701  0.21285690     0.08200
C231        C  0.48559198  0.71183996  0.21771602     0.10000
C232        C  0.45560481  0.72318261  0.22523379    -0.16800
C233        C  0.09641865  0.54421621  0.41048816    -0.10700
C234        C  0.10924063  0.55538691  0.37481545    -0.12200
C235        C  0.10445445  0.55361092  0.07995105    -0.10700
C236        C  0.11519204  0.56455022  0.11674550    -0.12200
C237        C  0.11301999  0.35544863  0.40320251    -0.10700
C238        C  0.10193341  0.36606336  0.43993917    -0.12200
C239        C  0.11384653  0.36437341  0.14737948    -0.10700
C240        C  0.10169929  0.37530029  0.11123923    -0.12200
C241        C  0.91196987  0.35597041  0.11787163    -0.10700
C242        C  0.92392336  0.36726897  0.08184466    -0.12200
C243        C  0.92927045  0.36680054  0.41049749    -0.10700
C244        C  0.91693417  0.35588208  0.37446217    -0.12200
C245        C  0.91882465  0.54927003  0.43619664    -0.10700
C246        C  0.90742925  0.56059560  0.39985290    -0.12200
C247        C  0.92910523  0.54778709  0.10568205    -0.10700
C248        C  0.91596693  0.55904283  0.14101810    -0.12200
C249        C  0.61346974  0.06460408  0.38583314    -0.10700
C250        C  0.60343392  0.05284551  0.42247511    -0.12200
C251        C  0.59900896  0.04300666  0.09052961    -0.10700
C252        C  0.61032498  0.05521595  0.12642976    -0.12200
C253        C  0.42581266  0.04079897  0.38838214    -0.10700
C254        C  0.41492379  0.05319244  0.35238525    -0.12200
C255        C  0.41864188  0.05069836  0.05999634    -0.10700
C256        C  0.40773729  0.06084904  0.09701602    -0.12200
C257        C  0.41227260  0.85344325  0.38304856    -0.10700
C258        C  0.42349747  0.86444482  0.41955448    -0.12200
C259        C  0.41241885  0.86548765  0.12777105    -0.10700
C260        C  0.42381806  0.87737450  0.09174222    -0.12200
C261        C  0.61473391  0.85604447  0.09608648    -0.10700
C262        C  0.60358294  0.86713691  0.05966916    -0.12200
C263        C  0.61205934  0.86331321  0.35456315    -0.10700
C264        C  0.60208080  0.87628329  0.39063915    -0.12200
C265        C  0.58203325  0.88633953  0.93399412     0.89100
C266        C  0.58769432  0.92711701  0.94151624    -0.51100
C267        C  0.57955716  0.94120433  0.48515029     0.12000
C268        C  0.56444407  0.91038023  0.51528457     0.23000
C269        C  0.60073941  0.86782388  0.97497884    -0.51900
C270        C  0.59541540  0.88268169  0.51820861     0.12100
C271        C  0.54111680  0.88050885  0.94151955    -0.51400
C272        C  0.53536167  0.89238372  0.48478420     0.12700
H273        H  0.59965417  0.94506488  0.91598324     0.17200
H274        H  0.55405450  0.91961320  0.54925525     0.02900
H275        H  0.62983671  0.85165496  0.47288744     0.17500
H276        H  0.52315473  0.86893851  0.91573002     0.17300
C277        C  0.44317872  0.88467392  0.54576605     0.89100
C278        C  0.43686793  0.92524520  0.53768615    -0.51100
C279        C  0.44570338  0.94155647  0.99665556     0.12000
C280        C  0.46083453  0.91083849  0.96644367     0.23000
C281        C  0.42526650  0.86553733  0.50456187    -0.51900
C282        C  0.42995733  0.88302122  0.96392320     0.12100
C283        C  0.48422990  0.87952966  0.53911464    -0.51400
C284        C  0.49028451  0.89310121  0.99665589     0.12700
H285        H  0.42435492  0.94315099  0.56283751     0.17200
H286        H  0.47089685  0.92012639  0.93233471     0.02900
H287        H  0.39591135  0.85204779  0.00979861     0.17500
H288        H  0.50207929  0.86838720  0.56533689     0.17300
C289        C  0.44037006  0.03269456  0.93379479     0.89100
C290        C  0.43495421  0.99184058  0.94089446    -0.51100
C291        C  0.44795463  0.97534579  0.48207375     0.12000
C292        C  0.46224710  0.00581253  0.51321185     0.23000
C293        C  0.42138465  0.05085727  0.97495052    -0.51900
C294        C  0.43089885  0.03297151  0.51602135     0.12100
C295        C  0.48119733  0.03875988  0.94158269    -0.51400
C296        C  0.49158818  0.02449275  0.48392638     0.12700
H297        H  0.42305622  0.97397707  0.91523021     0.17200
H298        H  0.47218594  0.99619333  0.54723542     0.02900
H299        H  0.39667925  0.06412903  0.47058361     0.17500
H300        H  0.49919532  0.05051460  0.91595576     0.17300
C301        C  0.58224962  0.03260763  0.54821285     0.89100
C302        C  0.58884371  0.99189397  0.54103792    -0.51100
C303        C  0.57647154  0.97738385  0.99712124     0.12000
C304        C  0.56104649  0.00771241  0.96651809     0.23000
C305        C  0.60103578  0.05141736  0.50740964    -0.51900
C306        C  0.59172787  0.03559258  0.96301441     0.12100
C307        C  0.54139039  0.03761688  0.53990618    -0.51400
C308        C  0.53187010  0.02584978  0.99664371     0.12700
H309        H  0.60088730  0.97429828  0.56689067     0.17200
H310        H  0.55071104  0.99802625  0.93272148     0.02900
H311        H  0.62594449  0.06741739  0.00770277     0.17500
H312        H  0.52291777  0.04905976  0.56521537     0.17300
C313        C  0.93640054  0.52757368  0.56254268     0.89100
C314        C  0.97733573  0.53352056  0.55644129    -0.51100
C315        C  0.99580286  0.52512955  0.01358820     0.12000
C316        C  0.96599073  0.50820382  0.98338859     0.23000
C317        C  0.91854082  0.54635318  0.52109466    -0.51900
C318        C  0.93722300  0.53803637  0.97874279     0.12100
C319        C  0.93096920  0.48685009  0.55467111    -0.51400
C320        C  0.94863138  0.47920806  0.01462693     0.12700
H321        H  0.99468134  0.54536394  0.58273028     0.17200
H322        H  0.97609813  0.49743381  0.95001348     0.02900
H323        H  0.90440226  0.57234652  0.02207402     0.17500
H324        H  0.91910638  0.46876219  0.58012481     0.17300
C325        C  0.94403050  0.38623187  0.95548485     0.89100
C326        C  0.98490237  0.38155506  0.96330461    -0.51100
C327        C  0.99306909  0.39030067  0.50588615     0.12000
C328        C  0.96222291  0.40740835  0.53421929     0.23000
C329        C  0.92571168  0.36800401  0.99700280    -0.51900
C330        C  0.93333434  0.37755914  0.53800979     0.12100
C331        C  0.93734538  0.42705224  0.96161113    -0.51400
C332        C  0.94571650  0.43600934  0.50158533     0.12700
H333        H  0.00316808  0.36958228  0.93813926     0.17200
H334        H  0.97125035  0.41858876  0.56787116     0.02900
H335        H  0.90203082  0.34270241  0.49350946     0.17500
H336        H  0.92546979  0.44421669  0.93517178     0.17300
C337        C  0.08563076  0.38642157  0.56686408     0.89100
C338        C  0.04455144  0.38047842  0.56104638    -0.51100
C339        C  0.03501443  0.39528954  0.01814680     0.12000
C340        C  0.06486809  0.41078772  0.98673256     0.23000
C341        C  0.10316973  0.36801015  0.52488042    -0.51900
C342        C  0.09327374  0.38050175  0.98359799     0.12100
C343        C  0.09098325  0.42732260  0.55929795    -0.51400
C344        C  0.08272586  0.44072101  0.01596587     0.12700
H345        H  0.02737954  0.36806005  0.58707814     0.17200
H346        H  0.05471387  0.42043629  0.95282865     0.02900
H347        H  0.12591250  0.34742936  0.02871974     0.17500
H348        H  0.10334675  0.44526198  0.58451575     0.17300
C349        C  0.08800077  0.53239576  0.95320656     0.89100
C350        C  0.04688430  0.53695698  0.95922617    -0.51100
C351        C  0.02903064  0.52278237  0.50259167     0.12000
C352        C  0.05891725  0.50743376  0.53415712     0.23000
C353        C  0.10511740  0.55156212  0.99493105    -0.51900
C354        C  0.08709925  0.53792850  0.53798235     0.12100
C355        C  0.09476098  0.49169399  0.96095652    -0.51400
C356        C  0.07730110  0.47798653  0.50466919     0.12700
H357        H  0.02919545  0.54856549  0.93312786     0.17200
H358        H  0.04871795  0.49732447  0.56782149     0.02900
H359        H  0.11984183  0.57148272  0.49357107     0.17500
H360        H  0.10749175  0.47407548  0.93566858     0.17300
O361        O  0.64116808  0.85904082  0.78414085    -0.55200
C362        C  0.63027473  0.84255023  0.64144840     0.77400
O363        O  0.69031109  0.76148551  0.72416483    -0.56400
C364        C  0.62042490  0.84334533  0.81261966     0.77400
C365        C  0.59043012  0.75020105  0.72584463     0.79800
Cd366      Cd  0.64276120  0.80708539  0.72864154     1.37500
O367        O  0.62150595  0.85743122  0.67903308    -0.55200
O368        O  0.58556164  0.78023868  0.70579221    -0.54000
C369        C  0.71642086  0.78185470  0.73503699     0.79700
O370        O  0.62036124  0.74540018  0.74627892    -0.56400
O371        O  0.64667668  0.81254908  0.64396384    -0.54800
O372        O  0.61107771  0.81131149  0.80312824    -0.54800
O373        O  0.70920629  0.81486287  0.74258950    -0.54000
O374        O  0.38724160  0.86151523  0.80568949    -0.55200
C375        C  0.40494573  0.84448867  0.66880479     0.77400
O376        O  0.40401055  0.74660842  0.73225085    -0.56400
C377        C  0.39447094  0.84267334  0.84099373     0.77400
C378        C  0.30785987  0.78650205  0.75201168     0.79800
Cd379      Cd  0.38274082  0.80839819  0.75285091     1.37500
O380        O  0.41007345  0.85904937  0.70768525    -0.55200
O381        O  0.31660500  0.81806953  0.73900976    -0.54000
C382        C  0.43550910  0.75159828  0.74821049     0.79700
O383        O  0.33299186  0.76632320  0.76662830    -0.56400
O384        O  0.38836392  0.81453924  0.66848094    -0.54800
O385        O  0.39434969  0.80864856  0.83611510    -0.54800
O386        O  0.44196585  0.78182141  0.76692268    -0.54000
O387        O  0.91305892  0.35642317  0.79428128    -0.55200
C388        C  0.89210736  0.34504200  0.66232724     0.77400
O389        O  0.81961024  0.28063701  0.73216266    -0.56400
C390        C  0.90108515  0.34870168  0.83388783     0.77400
C391        C  0.80218903  0.37931227  0.76577916     0.79800
Cd392      Cd  0.86083852  0.32961688  0.75177059     1.36700
O393        O  0.91097141  0.33076709  0.69395400    -0.55200
O394        O  0.83278679  0.38897390  0.75047773    -0.54000
C395        C  0.83836828  0.25511160  0.74857021     0.79700
O396        O  0.79778765  0.34604641  0.77456794    -0.56400
O397        O  0.85913320  0.35105441  0.67134761    -0.54800
O398        O  0.87187082  0.33086325  0.83563761    -0.54800
O399        O  0.86909300  0.26322815  0.76510466    -0.54000
O400        O  0.90871259  0.56084821  0.81738902    -0.55200
C401        C  0.89276917  0.55996874  0.68620018     0.77400
O402        O  0.79486982  0.55850830  0.75431592    -0.56400
C403        C  0.89512463  0.57026948  0.85554843     0.77400
C404        C  0.83313204  0.65566330  0.76163148     0.79800
Cd405      Cd  0.85677346  0.58173645  0.77051585     1.37500
O406        O  0.90355742  0.58705537  0.70903193    -0.55200
O407        O  0.86639410  0.64836616  0.76677725    -0.54000
C408        C  0.79804485  0.53175111  0.78131170     0.79700
O409        O  0.81125355  0.62932712  0.76127702    -0.56400
O410        O  0.86608593  0.54268639  0.70228168    -0.54800
O411        O  0.86509481  0.58680796  0.85438790    -0.54800
O412        O  0.82721699  0.52911694  0.80393511    -0.54000
O413        O  0.37423320  0.09854149  0.64169842    -0.55200
C414        C  0.40426001  0.07374722  0.81018612     0.77400
O415        O  0.43840525  0.13736741  0.70046212    -0.56400
C416        C  0.39441430  0.07092713  0.63941231     0.77400
C417        C  0.30829683  0.13306126  0.73413669     0.79800
Cd418      Cd  0.38222948  0.10857246  0.72523268     1.37500
O419        O  0.38135477  0.05880675  0.78380498    -0.55200
O420        O  0.31662540  0.10063861  0.74366988    -0.54000
C421        C  0.43289762  0.16728371  0.72052097     0.79700
O422        O  0.33339391  0.15328729  0.71943765    -0.56400
O423        O  0.41650713  0.10412514  0.79769160    -0.54800
O424        O  0.40699184  0.05894372  0.67691813    -0.54800
O425        O  0.40312374  0.17108806  0.74164495    -0.54000
O426        O  0.62148002  0.06146917  0.80189021    -0.55200
C427        C  0.61551440  0.07633260  0.67157981     0.77400
O428        O  0.61364324  0.17300032  0.72022979    -0.56400
C429        C  0.62431359  0.07786649  0.83997649     0.77400
C430        C  0.71052889  0.13861393  0.75439157     0.79800
Cd431      Cd  0.63616913  0.11546581  0.75402581     1.37500
O432        O  0.64792131  0.08624886  0.67833192    -0.55200
O433        O  0.70275778  0.10523812  0.75187146    -0.54000
C434        C  0.58690618  0.17531130  0.74731738     0.79700
O435        O  0.68439894  0.16068868  0.75723177    -0.56400
O436        O  0.59299754  0.08313054  0.70318161    -0.54800
O437        O  0.63424644  0.11061479  0.83857309    -0.54800
O438        O  0.58440688  0.15169387  0.77862376    -0.54000
O439        O  0.11368310  0.34060032  0.72305510    -0.55200
C440        C  0.13260323  0.34415332  0.86051394     0.77400
O441        O  0.21096910  0.28036629  0.77400481    -0.56400
C442        C  0.13157675  0.35051346  0.68811309     0.77400
C443        C  0.22371479  0.38395522  0.77865999     0.79800
Cd444      Cd  0.16750111  0.33024399  0.77342313     1.37500
O445        O  0.11666630  0.35055058  0.82280903    -0.55200
O446        O  0.19243798  0.38892989  0.79528571    -0.54000
C447        C  0.18847746  0.25493030  0.76876831     0.79700
O448        O  0.22997189  0.35357086  0.76015270    -0.56400
O449        O  0.16353810  0.32942086  0.85826906    -0.54800
O450        O  0.16572040  0.35009094  0.69178953    -0.54800
O451        O  0.15527831  0.26355035  0.76693350    -0.54000
O452        O  0.11278727  0.57866805  0.69634688    -0.55200
C453        C  0.13007167  0.56838441  0.82997286     0.77400
O454        O  0.22793197  0.56867314  0.77535289    -0.56400
C455        C  0.13050594  0.57269597  0.65977329     0.77400
C456        C  0.18839511  0.66263973  0.73988948     0.79800
Cd457      Cd  0.16737854  0.58778361  0.74549148     1.37500
O458        O  0.14778795  0.59760213  0.82665976    -0.55200
O459        O  0.15547380  0.65424957  0.74640658    -0.54000
C460        C  0.22709652  0.53846972  0.75484149     0.79700
O461        O  0.21065208  0.63694772  0.73443468    -0.56400
O462        O  0.12811048  0.54904068  0.79421799    -0.54800
O463        O  0.16463358  0.57540875  0.66220553    -0.54800
O464        O  0.20021494  0.53227886  0.72912581    -0.54000
C465        C  0.24963487  0.41287820  0.77842336    -0.15900
C466        C  0.26280560  0.44264367  0.77563806     0.08200
C467        C  0.26457514  0.48042826  0.76955150     0.10000
C468        C  0.25327479  0.51055347  0.76288488    -0.16800
C469        C  0.20105583  0.21831345  0.76359975    -0.15900
C470        C  0.21841495  0.19107032  0.75708879     0.08200
C471        C  0.24528151  0.16464482  0.74830480     0.10000
C472        C  0.27242496  0.14725464  0.74113979    -0.16800
C473        C  0.46085304  0.19420572  0.72198259    -0.15900
C474        C  0.49010295  0.20831819  0.72606754     0.08200
C475        C  0.52771931  0.21117356  0.73330486     0.10000
C476        C  0.55813220  0.20070606  0.74018362    -0.16800
C477        C  0.74724850  0.15152906  0.75365286    -0.15900
C478        C  0.77569772  0.16763830  0.75261184     0.08200
C479        C  0.80462938  0.19266914  0.75114877     0.10000
C480        C  0.82389944  0.21904534  0.74984298    -0.16800
C481        C  0.77466061  0.40591197  0.77377551    -0.15900
C482        C  0.76084824  0.43511661  0.77925000     0.08200
C483        C  0.75961785  0.47307284  0.78301867     0.10000
C484        C  0.77165337  0.50336197  0.78351990    -0.16800
C485        C  0.27145516  0.77293040  0.74895418    -0.15900
C486        C  0.24423371  0.75497379  0.74580632     0.08200
C487        C  0.21780693  0.72741871  0.74223144     0.10000
C488        C  0.20091493  0.69947604  0.74014556    -0.16800
C489        C  0.75221783  0.76712251  0.73965911    -0.15900
C490        C  0.77865613  0.74829259  0.74440164     0.08200
C491        C  0.80395449  0.72005988  0.75069212     0.10000
C492        C  0.82019407  0.69204175  0.75608333    -0.16800
C493        C  0.56159788  0.72435616  0.72801746    -0.15900
C494        C  0.53146530  0.71231949  0.73197034     0.08200
C495        C  0.49366573  0.71282357  0.73804615     0.10000
C496        C  0.46391049  0.72549941  0.74323466    -0.16800
C497        C  0.10164852  0.54603205  0.90876872    -0.10700
C498        C  0.11381324  0.55700666  0.87269341    -0.12200
C499        C  0.10035626  0.55169155  0.58147608    -0.10700
C500        C  0.11300791  0.56224721  0.61746320    -0.12200
C501        C  0.11705321  0.35462590  0.90394108    -0.10700
C502        C  0.10575937  0.36570769  0.94035267    -0.12200
C503        C  0.11404343  0.36233118  0.64632119    -0.10700
C504        C  0.10041224  0.37316360  0.61098090    -0.12200
C505        C  0.90735433  0.35483810  0.61833530    -0.10700
C506        C  0.91924590  0.36473649  0.58160134    -0.12200
C507        C  0.93133091  0.37199288  0.91097611    -0.10700
C508        C  0.91895378  0.36069410  0.87522160    -0.12200
C509        C  0.92422808  0.55114959  0.93495437    -0.10700
C510        C  0.91209373  0.56108656  0.89849723    -0.12200
C511        C  0.92234658  0.53998400  0.60722452    -0.10700
C512        C  0.90962609  0.54942385  0.64361768    -0.12200
C513        C  0.61529881  0.06075426  0.88296273    -0.10700
C514        C  0.60547547  0.04865591  0.91952443    -0.12200
C515        C  0.59452196  0.04622087  0.59325840    -0.10700
C516        C  0.60447733  0.05898748  0.62944737    -0.12200
C517        C  0.42711272  0.04568741  0.88889153    -0.10700
C518        C  0.41608809  0.05737372  0.85260579    -0.12200
C519        C  0.41541133  0.04461081  0.55920613    -0.10700
C520        C  0.40430064  0.05525432  0.59588859    -0.12200
C521        C  0.40400319  0.85882302  0.88445841    -0.10700
C522        C  0.41491917  0.87028517  0.92089149    -0.12200
C523        C  0.41807042  0.86054991  0.62680355    -0.10700
C524        C  0.42959454  0.87197009  0.59063300    -0.12200
C525        C  0.62054299  0.85814190  0.59781187    -0.10700
C526        C  0.60988078  0.86967518  0.56134364    -0.12200
C527        C  0.60755500  0.86080455  0.85386447    -0.10700
C528        C  0.59564432  0.87324412  0.88929813    -0.12200
loop_ 
_geom_bond_atom_site_label_1 
_geom_bond_atom_site_label_2 
_geom_bond_distance 
_geom_bond_site_symmetry_2 
_ccdc_geom_bond_type 
C1            C2   1.535       .  S
C1            C7   1.535       .  S
C1            C5   1.536       .  S
C1          C264   1.473       .  S
C2            H9   1.087       .  S
C2          C267   1.367       .  D
C3            C4   1.537   1_556  S
C3          C266   1.366       .  D
C3          C303   1.473       .  S
C4            C8   1.541   1_554  S
C4            C6   1.532       .  S
C4           H10   1.111       .  S
C5          H275   1.087       .  S
C5          C270   1.363       .  D
C6          C269   1.362   1_554  D
C6          C262   1.441       .  S
C7           H12   1.087       .  S
C7          C272   1.365       .  D
C8          C271   1.368       .  D
C8          C284   1.482       .  S
H11         C269   1.087       .  S
C13          C14   1.532       .  S
C13          C19   1.537       .  S
C13          C17   1.537       .  S
C13         C260   1.474       .  S
C14          H21   1.087       .  S
C14         C279   1.365   1_554  D
C15          C16   1.536       .  S
C15         C278   1.365       .  D
C15         C291   1.470       .  S
C16          C20   1.541       .  S
C16          C18   1.532       .  S
C16          H22   1.111       .  S
C17         H287   1.087       .  S
C17         C282   1.364   1_554  D
C18         C281   1.364       .  D
C18         C258   1.445       .  S
C19          H24   1.087       .  S
C19         C284   1.367   1_554  D
C20         C283   1.366       .  D
C20         C272   1.479       .  S
H23         C281   1.087       .  S
C25          C26   1.534   1_545  S
C25          C31   1.537       .  S
C25          C29   1.538       .  S
C25         C253   1.473       .  S
C26          H33   1.087       .  S
C26         C291   1.366       .  D
C27          C28   1.536   1_566  S
C27         C290   1.365       .  D
C27         C279   1.471       .  S
C28          C32   1.539   1_554  S
C28          C30   1.531       .  S
C28          H34   1.112   1_545  S
C29         H299   1.087       .  S
C29         C294   1.363       .  D
C30         C293   1.364   1_554  D
C30         C255   1.443       .  S
C31          H36   1.087       .  S
C31         C296   1.367       .  D
C32         C295   1.367       .  D
C32         C308   1.479       .  S
H35         C293   1.087       .  S
C37          C38   1.534   1_545  S
C37          C43   1.538       .  S
C37          C41   1.537       .  S
C37         C251   1.474       .  S
C38          H45   1.087       .  S
C38         C303   1.366   1_554  D
C39          C40   1.539   1_565  S
C39         C302   1.366       .  D
C39         C267   1.476       .  S
C40          C44   1.540       .  S
C40          C42   1.531       .  S
C40          H46   1.111   1_545  S
C41         H311   1.087       .  S
C41         C306   1.363   1_554  D
C42         C305   1.363       .  D
C42         C250   1.443       .  S
C43          H48   1.087       .  S
C43         C308   1.367   1_554  D
C44         C307   1.366       .  D
C44         C296   1.478       .  S
H47         C305   1.087       .  S
C49          C50   1.533       .  S
C49          C55   1.537       .  S
C49          C53   1.535       .  S
C49         C247   1.471       .  S
C50          H57   1.087   1_655  S
C50         C315   1.366       .  D
C51          C52   1.541       .  S
C51         C314   1.366       .  D
C51         C351   1.476   1_655  S
C52          C56   1.544       .  S
C52          C54   1.538       .  S
C52          H58   1.111       .  S
C53         H323   1.087       .  S
C53         C318   1.362   1_554  D
C54         C317   1.364       .  D
C54         C245   1.448       .  S
C55          H60   1.087       .  S
C55         C320   1.366       .  D
C56         C319   1.364       .  D
C56         C332   1.479       .  S
H59         C317   1.087       .  S
C61          C62   1.534       .  S
C61          C67   1.536       .  S
C61          C65   1.538       .  S
C61         C243   1.474       .  S
C62          H69   1.087   1_655  S
C62         C327   1.367       .  D
C63          C64   1.540       .  S
C63         C326   1.365   1_554  D
C63         C339   1.474   1_655  S
C64          C68   1.542       .  S
C64          C66   1.535       .  S
C64          H70   1.111       .  S
C65         H335   1.087       .  S
C65         C330   1.364       .  D
C66         C329   1.363   1_554  D
C66         C242   1.446       .  S
C67          H72   1.087       .  S
C67         C332   1.365       .  D
C68         C331   1.366   1_554  D
C68         C320   1.479       .  S
H71         C329   1.087       .  S
C73          C74   1.534       .  S
C73          C79   1.537       .  S
C73          C77   1.537       .  S
C73         C240   1.474       .  S
C74          H81   1.087       .  S
C74         C339   1.365       .  D
C75          C76   1.537       .  S
C75         C338   1.368       .  D
C75         C327   1.476   1_455  S
C76          C80   1.539       .  S
C76          C78   1.530       .  S
C76          H82   1.112       .  S
C77         H347   1.087       .  S
C77         C342   1.363   1_554  D
C78         C341   1.363       .  D
C78         C238   1.444       .  S
C79          H84   1.087       .  S
C79         C344   1.367       .  D
C80         C343   1.366       .  D
C80         C356   1.478       .  S
H83         C341   1.087       .  S
C85          C86   1.535       .  S
C85          C91   1.536       .  S
C85          C89   1.537       .  S
C85         C233   1.475       .  S
C86          H93   1.087       .  S
C86         C351   1.366       .  D
C87          C88   1.538       .  S
C87         C350   1.365   1_554  D
C87         C315   1.472   1_455  S
C88          C92   1.540       .  S
C88          C90   1.532       .  S
C88          H94   1.111       .  S
C89         H359   1.087       .  S
C89         C354   1.363       .  D
C90         C353   1.364   1_554  D
C90         C235   1.446       .  S
C91          H96   1.087       .  S
C91         C356   1.366       .  D
C92         C355   1.367   1_554  D
C92         C344   1.480       .  S
H95         C353   1.087       .  S
O97         C100   1.265       .  A
O97        Cd102   2.496       .  S
C98         O107   1.263       .  A
C98         O103   1.264       .  A
C98         C261   1.435       .  S
O99         C105   1.262       .  A
O99        Cd102   2.437       .  S
C100        O108   1.262       .  A
C100        C263   1.440       .  S
C101        O106   1.264       .  A
C101        O104   1.263       .  A
C101        C229   1.431       .  S
Cd102       O109   2.489       .  S
Cd102       O108   2.463       .  S
Cd102       O107   2.465       .  S
Cd102       O103   2.471       .  S
Cd102       O106   2.486       .  S
Cd102       O104   2.426       .  S
C105        O109   1.265       .  A
C105        C225   1.434       .  S
O110        C113   1.267       .  A
O110       Cd115   2.492       .  S
C111        O120   1.262       .  A
C111        O116   1.265       .  A
C111        C259   1.441       .  S
O112        C118   1.264       .  A
O112       Cd115   2.492       .  S
C113        O121   1.262       .  A
C113        C257   1.439       .  S
C114        O119   1.261       .  A
C114        O117   1.265       .  A
C114        C221   1.436       .  S
Cd115       O122   2.406       .  S
Cd115       O121   2.459       .  S
Cd115       O120   2.467       .  S
Cd115       O116   2.500       .  S
Cd115       O119   2.443       .  S
Cd115       O117   2.501       .  S
C118        O122   1.262       .  A
C118        C232   1.428       .  S
O123        C126   1.264       .  A
O123       Cd128   2.509       .  S
C124        O133   1.264       .  A
C124        O129   1.264       .  A
C124        C241   1.441       .  S
O125        C131   1.259       .  A
O125       Cd128   2.439       .  S
C126        O134   1.260       .  A
C126        C244   1.441       .  S
C127        O132   1.264       .  A
C127        O130   1.264       .  A
C127        C217   1.428       .  S
Cd128       O135   2.509       .  S
Cd128       O134   2.473       .  S
Cd128       O133   2.478       .  S
Cd128       O129   2.483       .  S
Cd128       O132   2.477       .  S
Cd128       O130   2.421       .  S
C131        O135   1.264       .  A
C131        C216   1.435       .  S
O136        C139   1.264       .  A
O136       Cd141   2.486       .  S
C137        O146   1.261       .  A
C137        O142   1.265       .  A
C137        C248   1.438       .  S
O138        C144   1.264       .  A
O138       Cd141   2.482       .  S
C139        O147   1.264       .  A
C139        C246   1.442       .  S
C140        O145   1.260       .  A
C140        O143   1.265       .  A
C140        C228   1.434       .  S
Cd141       O148   2.423       .  S
Cd141       O147   2.482       .  S
Cd141       O146   2.464       .  S
Cd141       O142   2.497       .  S
Cd141       O145   2.437       .  S
Cd141       O143   2.501       .  S
C144        O148   1.264       .  A
C144        C220   1.430       .  S
O149        C152   1.262       .  A
O149       Cd154   2.472       .  S
C150        O159   1.261       .  A
C150        O155   1.267       .  A
C150        C254   1.440       .  S
O151        C157   1.263       .  A
O151       Cd154   2.425       .  S
C152        O160   1.264       .  A
C152        C256   1.437       .  S
C153        O158   1.261       .  A
C153        O156   1.265       .  A
C153        C208   1.434       .  S
Cd154       O161   2.485       .  S
Cd154       O160   2.481       .  S
Cd154       O159   2.457       .  S
Cd154       O155   2.505       .  S
Cd154       O158   2.437       .  S
Cd154       O156   2.493       .  S
C157        O161   1.265       .  A
C157        C209   1.430       .  S
O162        C165   1.265       .  A
O162       Cd167   2.488       .  S
C163        O172   1.264       .  A
C163        O168   1.264       .  A
C163        C252   1.441       .  S
O164        C170   1.264       .  A
O164       Cd167   2.497       .  S
C165        O173   1.261       .  A
C165        C249   1.437       .  S
C166        O171   1.262       .  A
C166        O169   1.265       .  A
C166        C213   1.436       .  S
Cd167       O174   2.423       .  S
Cd167       O173   2.464       .  S
Cd167       O172   2.481       .  S
Cd167       O168   2.483       .  S
Cd167       O171   2.440       .  S
Cd167       O169   2.500       .  S
C170        O174   1.262       .  A
C170        C212   1.432       .  S
O175        C178   1.267       .  A
O175       Cd180   2.501       .  S
C176        O185   1.262       .  A
C176        O181   1.265       .  A
C176        C237   1.438       .  S
O177        C183   1.261       .  A
O177       Cd180   2.458       .  S
C178        O186   1.262       .  A
C178        C239   1.441       .  S
C179        O184   1.264       .  A
C179        O182   1.263       .  A
C179        C201   1.430       .  S
Cd180       O187   2.491       .  S
Cd180       O186   2.462       .  S
Cd180       O185   2.465       .  S
Cd180       O181   2.488       .  S
Cd180       O184   2.478       .  S
Cd180       O182   2.435       .  S
C183        O187   1.263       .  A
C183        C205   1.435       .  S
O188        C191   1.265       .  A
O188       Cd193   2.492       .  S
C189        O198   1.262       .  A
C189        O194   1.264       .  A
C189        C234   1.443       .  S
O190        C196   1.263       .  A
O190       Cd193   2.483       .  S
C191        O199   1.263       .  A
C191        C236   1.440       .  S
C192        O197   1.260       .  A
C192        O195   1.265       .  A
C192        C224   1.436       .  S
Cd193       O200   2.425       .  S
Cd193       O199   2.472       .  S
Cd193       O198   2.480       .  S
Cd193       O194   2.501       .  S
Cd193       O197   2.436       .  S
Cd193       O195   2.509       .  S
C196        O200   1.262       .  A
C196        C204   1.428       .  S
C201        C202   1.202       .  T
C202        C203   1.404       .  S
C203        C204   1.201       .  T
C205        C206   1.205       .  T
C206        C207   1.411       .  S
C207        C208   1.205       .  T
C209        C210   1.202       .  T
C210        C211   1.406       .  S
C211        C212   1.203       .  T
C213        C214   1.206       .  T
C214        C215   1.412       .  S
C215        C216   1.206       .  T
C217        C218   1.201       .  T
C218        C219   1.404       .  S
C219        C220   1.201       .  T
C221        C222   1.206       .  T
C222        C223   1.413       .  S
C223        C224   1.206       .  T
C225        C226   1.205       .  T
C226        C227   1.411       .  S
C227        C228   1.205       .  T
C229        C230   1.202       .  T
C230        C231   1.405       .  S
C231        C232   1.201       .  T
C233        C234   1.210       .  T
C235        C236   1.209       .  T
C237        C238   1.207       .  T
C239        C240   1.210       .  T
C241        C242   1.209       .  T
C243        C244   1.210       .  T
C245        C246   1.210       .  T
C247        C248   1.208       .  T
C249        C250   1.207       .  T
C251        C252   1.210       .  T
C253        C254   1.209       .  T
C255        C256   1.207       .  T
C257        C258   1.208       .  T
C259        C260   1.209       .  T
C261        C262   1.206       .  T
C263        C264   1.209       .  T
C265        C266   1.533       .  S
C265        C271   1.538       .  S
C265        C269   1.535       .  S
C265        C528   1.473       .  S
C266        H273   1.087       .  S
C267        C268   1.538       .  S
C268        C272   1.540       .  S
C268        C270   1.533       .  S
C268        H274   1.111       .  S
C270        C526   1.443       .  S
C271        H276   1.086       .  S
C277        C278   1.532       .  S
C277        C283   1.536       .  S
C277        C281   1.538       .  S
C277        C524   1.472       .  S
C278        H285   1.087       .  S
C279        C280   1.537       .  S
C280        C284   1.541       .  S
C280        C282   1.533       .  S
C280        H286   1.111       .  S
C282        C522   1.445       .  S
C283        H288   1.087       .  S
C289        C290   1.533   1_545  S
C289        C295   1.537       .  S
C289        C293   1.538       .  S
C289        C517   1.472       .  S
C290        H297   1.087       .  S
C291        C292   1.535   1_565  S
C292        C296   1.538       .  S
C292        C294   1.530       .  S
C292        H298   1.112   1_545  S
C294        C519   1.443       .  S
C295        H300   1.087       .  S
C301        C302   1.535   1_545  S
C301        C307   1.535       .  S
C301        C305   1.537       .  S
C301        C515   1.472       .  S
C302        H309   1.087       .  S
C303        C304   1.537   1_565  S
C304        C308   1.539       .  S
C304        C306   1.531       .  S
C304        H310   1.112   1_545  S
C306        C514   1.443       .  S
C307        H312   1.087       .  S
C313        C314   1.534       .  S
C313        C319   1.532       .  S
C313        C317   1.536       .  S
C313        C511   1.470       .  S
C314        H321   1.087       .  S
C315        C316   1.538   1_554  S
C316        C320   1.541   1_556  S
C316        C318   1.533       .  S
C316        H322   1.111       .  S
C318        C509   1.442       .  S
C319        H324   1.087       .  S
C325        C326   1.532       .  S
C325        C331   1.535       .  S
C325        C329   1.536       .  S
C325        C507   1.471       .  S
C326        H333   1.087   1_655  S
C327        C328   1.538       .  S
C328        C332   1.542       .  S
C328        C330   1.535       .  S
C328        H334   1.111       .  S
C330        C506   1.447       .  S
C331        H336   1.087       .  S
C337        C338   1.538       .  S
C337        C343   1.536       .  S
C337        C341   1.538       .  S
C337        C504   1.475       .  S
C338        H345   1.087       .  S
C339        C340   1.539   1_554  S
C340        C344   1.540   1_556  S
C340        C342   1.533       .  S
C340        H346   1.112       .  S
C342        C502   1.444       .  S
C343        H348   1.087       .  S
C349        C350   1.534       .  S
C349        C355   1.538       .  S
C349        C353   1.538       .  S
C349        C497   1.473       .  S
C350        H357   1.087       .  S
C351        C352   1.540       .  S
C352        C356   1.540       .  S
C352        C354   1.534       .  S
C352        H358   1.111       .  S
C354        C499   1.446       .  S
C355        H360   1.087       .  S
O361        C364   1.266       .  A
O361       Cd366   2.504       .  S
C362        O371   1.262       .  A
C362        O367   1.263       .  A
C362        C525   1.437       .  S
O363        C369   1.260       .  A
O363       Cd366   2.431       .  S
C364        O372   1.261       .  A
C364        C527   1.440       .  S
C365        O370   1.264       .  A
C365        O368   1.264       .  A
C365        C493   1.428       .  S
Cd366       O373   2.497       .  S
Cd366       O372   2.462       .  S
Cd366       O371   2.471       .  S
Cd366       O367   2.476       .  S
Cd366       O370   2.473       .  S
Cd366       O368   2.420       .  S
C369        O373   1.265       .  A
C369        C489   1.432       .  S
O374        C377   1.267       .  A
O374       Cd379   2.493       .  S
C375        O384   1.262       .  A
C375        O380   1.264       .  A
C375        C523   1.439       .  S
O376        C382   1.263       .  A
O376       Cd379   2.482       .  S
C377        O385   1.262       .  A
C377        C521   1.439       .  S
C378        O383   1.261       .  A
C378        O381   1.265       .  A
C378        C485   1.434       .  S
Cd379       O386   2.426       .  S
Cd379       O385   2.455       .  S
Cd379       O384   2.469       .  S
Cd379       O380   2.494       .  S
Cd379       O383   2.434       .  S
Cd379       O381   2.494       .  S
C382        O386   1.262       .  A
C382        C496   1.429       .  S
O387        C390   1.264       .  A
O387       Cd392   2.490       .  S
C388        O397   1.262       .  A
C388        O393   1.266       .  A
C388        C505   1.441       .  S
O389        C395   1.261       .  A
O389       Cd392   2.427       .  S
C390        O398   1.262       .  A
C390        C508   1.438       .  S
C391        O396   1.263       .  A
C391        O394   1.263       .  A
C391        C481   1.430       .  S
Cd392       O399   2.496       .  S
Cd392       O398   2.469       .  S
Cd392       O397   2.466       .  S
Cd392       O393   2.496       .  S
Cd392       O396   2.490       .  S
Cd392       O394   2.420       .  S
C395        O399   1.265       .  A
C395        C480   1.433       .  S
O400        C403   1.264       .  A
O400       Cd405   2.471       .  S
C401        O410   1.261       .  A
C401        O406   1.263       .  A
C401        C512   1.437       .  S
O402        C408   1.265       .  A
O402       Cd405   2.481       .  S
C403        O411   1.263       .  A
C403        C510   1.435       .  S
C404        O409   1.262       .  A
C404        O407   1.263       .  A
C404        C492   1.432       .  S
Cd405       O412   2.427       .  S
Cd405       O411   2.462       .  S
Cd405       O410   2.473       .  S
Cd405       O406   2.489       .  S
Cd405       O409   2.442       .  S
Cd405       O407   2.484       .  S
C408        O412   1.263       .  A
C408        C484   1.430       .  S
O413        C416   1.262       .  A
O413       Cd418   2.471       .  S
C414        O423   1.261       .  A
C414        O419   1.266       .  A
C414        C518   1.439       .  S
O415        C421   1.264       .  A
O415       Cd418   2.434       .  S
C416        O424   1.263       .  A
C416        C520   1.437       .  S
C417        O422   1.262       .  A
C417        O420   1.265       .  A
C417        C472   1.436       .  S
Cd418       O425   2.476       .  S
Cd418       O424   2.479       .  S
Cd418       O423   2.459       .  S
Cd418       O419   2.502       .  S
Cd418       O422   2.446       .  S
Cd418       O420   2.492       .  S
C421        O425   1.264       .  A
C421        C473   1.431       .  S
O426        C429   1.265       .  A
O426       Cd431   2.487       .  S
C427        O436   1.262       .  A
C427        O432   1.264       .  A
C427        C516   1.439       .  S
O428        C434   1.263       .  A
O428       Cd431   2.480       .  S
C429        O437   1.262       .  A
C429        C513   1.437       .  S
C430        O435   1.263       .  A
C430        O433   1.265       .  A
C430        C477   1.434       .  S
Cd431       O438   2.435       .  S
Cd431       O437   2.462       .  S
Cd431       O436   2.476       .  S
Cd431       O432   2.486       .  S
Cd431       O435   2.438       .  S
Cd431       O433   2.482       .  S
C434        O438   1.262       .  A
C434        C476   1.429       .  S
O439        C442   1.264       .  A
O439       Cd444   2.493       .  S
C440        O449   1.264       .  A
C440        O445   1.264       .  A
C440        C501   1.438       .  S
O441        C447   1.260       .  A
O441       Cd444   2.438       .  S
C442        O450   1.262       .  A
C442        C503   1.442       .  S
C443        O448   1.264       .  A
C443        O446   1.262       .  A
C443        C465   1.431       .  S
Cd444       O451   2.507       .  S
Cd444       O450   2.481       .  S
Cd444       O449   2.468       .  S
Cd444       O445   2.474       .  S
Cd444       O448   2.486       .  S
Cd444       O446   2.435       .  S
C447        O451   1.265       .  A
C447        C469   1.435       .  S
O452        C455   1.266       .  A
O452       Cd457   2.488       .  S
C453        O462   1.262       .  A
C453        O458   1.263       .  A
C453        C498   1.440       .  S
O454        C460   1.263       .  A
O454       Cd457   2.495       .  S
C455        O463   1.263       .  A
C455        C500   1.440       .  S
C456        O461   1.263       .  A
C456        O459   1.266       .  A
C456        C488   1.434       .  S
Cd457       O464   2.424       .  S
Cd457       O463   2.463       .  S
Cd457       O462   2.476       .  S
Cd457       O458   2.491       .  S
Cd457       O461   2.435       .  S
Cd457       O459   2.489       .  S
C460        O464   1.261       .  A
C460        C468   1.429       .  S
C465        C466   1.202       .  T
C466        C467   1.406       .  S
C467        C468   1.202       .  T
C469        C470   1.206       .  T
C470        C471   1.412       .  S
C471        C472   1.206       .  T
C473        C474   1.202       .  T
C474        C475   1.405       .  S
C475        C476   1.202       .  T
C477        C478   1.205       .  T
C478        C479   1.410       .  S
C479        C480   1.204       .  T
C481        C482   1.201       .  T
C482        C483   1.404       .  S
C483        C484   1.201       .  T
C485        C486   1.205       .  T
C486        C487   1.411       .  S
C487        C488   1.205       .  T
C489        C490   1.204       .  T
C490        C491   1.409       .  S
C491        C492   1.204       .  T
C493        C494   1.201       .  T
C494        C495   1.403       .  S
C495        C496   1.201       .  T
C497        C498   1.209       .  T
C499        C500   1.209       .  T
C501        C502   1.207       .  T
C503        C504   1.210       .  T
C505        C506   1.209       .  T
C507        C508   1.208       .  T
C509        C510   1.206       .  T
C511        C512   1.207       .  T
C513        C514   1.207       .  T
C515        C516   1.208       .  T
C517        C518   1.209       .  T
C519        C520   1.207       .  T
C521        C522   1.208       .  T
C523        C524   1.208       .  T
C525        C526   1.207       .  T
C527        C528   1.209       .  T
