geometry optimzed in LAMMPS
_audit_creation_date              2020-11-30 
_audit_creation_method            'lammps2cif' 
_symmetry_space_group_name_H-M    'P1' 
_symmetry_Int_Tables_number       1 
_symmetry_cell_setting            triclinic 
loop_ 
_symmetry_equiv_pos_as_xyz 
  x,y,z 
_cell_length_a                    6.96392338 
_cell_length_b                    26.85801990541954 
_cell_length_c                    46.38084178843978 
_cell_angle_alpha                 89.9977687683973 
_cell_angle_beta                  90.0158860847406 
_cell_angle_gamma                 89.94368016723398 
loop_ 
_atom_site_label 
_atom_site_type_symbol 
_atom_site_fract_x 
_atom_site_fract_y 
_atom_site_fract_z 
_atom_site_charge 
C1          C  0.07361449  0.18396087  0.14914763     0.03500
C2          C  0.05300555  0.18412377  0.17931643    -0.12700
C3          C  0.00341998  0.22789851  0.19434151     0.01000
C4          C  0.97980764  0.27214226  0.17844439    -0.11200
C5          C  0.01460490  0.27370029  0.14872664     0.03400
C6          C  0.05785044  0.22927441  0.13415524    -0.10600
H7          H  0.07735516  0.15009735  0.19107951     0.09000
H8          H  0.93128166  0.30570370  0.18900036     0.06600
H9          H  0.08276881  0.23023345  0.11118826     0.06400
N10         N  0.10760229  0.58053105  0.09846096    -0.27000
N11         N  0.09583243  0.55638455  0.12321629    -0.34800
C12         C  0.11314641  0.58920346  0.14495757     0.01400
C13         C  0.13710216  0.63657005  0.13344760     0.07400
C14         C  0.13254937  0.62929724  0.10380610    -0.05700
H15         H  0.11074037  0.57880768  0.16748323     0.08100
H16         H  0.15007963  0.65700856  0.08714769     0.09300
Cu17       Cu  0.06166395  0.47965756  0.12653290     0.44200
Cu18       Cu  0.09307633  0.54648451  0.05832150     0.42000
Cu19       Cu  0.01912024  0.41366813  0.05899831     0.43900
N20         N  0.02897814  0.40284556  0.12348134    -0.34400
N21         N  0.01367160  0.37897406  0.09869240    -0.28600
C22         C  0.00194802  0.32981492  0.10373996    -0.04700
C23         C  0.00996000  0.32202613  0.13322711     0.07500
C24         C  0.02693904  0.36936232  0.14503669     0.01300
H25         H  0.99059887  0.30192302  0.08699783     0.09000
H26         H  0.04338575  0.37883855  0.16755707     0.08000
N27         N  0.03724013  0.45513822  0.02163592    -0.35800
N28         N  0.06482311  0.50381275  0.02123242    -0.28000
C29         C  0.06854864  0.51935042  0.99366676    -0.03200
C30         C  0.04225438  0.47839949  0.97599388     0.05400
C31         C  0.02304010  0.43834889  0.99442973     0.03500
H32         H  0.08845341  0.55761756  0.98703254     0.08600
H33         H  0.99921710  0.39984760  0.98857728     0.07400
C34         C  0.40697514  0.18387918  0.27162579     0.03500
C35         C  0.42522848  0.22905548  0.28666472    -0.12700
C36         C  0.47024751  0.27339689  0.27216690     0.01000
C37         C  0.50351247  0.27188684  0.24240516    -0.11200
C38         C  0.47713302  0.22784324  0.22644417     0.03400
C39         C  0.42625242  0.18412830  0.24143282    -0.10600
H40         H  0.40151897  0.22993596  0.30968157     0.09000
H41         H  0.55351055  0.30525629  0.23185541     0.06600
H42         H  0.40016312  0.15023003  0.22964816     0.06400
N43         N  0.40740407  0.58046616  0.32240562    -0.27000
N44         N  0.42133800  0.55630003  0.29768610    -0.34800
C45         C  0.40663856  0.58912192  0.27589147     0.01400
C46         C  0.38206194  0.63652056  0.28733982     0.07400
C47         C  0.38361312  0.62924676  0.31699126    -0.05700
H48         H  0.41023057  0.57869357  0.25337629     0.08100
H49         H  0.36381720  0.65695826  0.33361896     0.09300
Cu50       Cu  0.45099212  0.47946481  0.29459039     0.44200
Cu51       Cu  0.41441636  0.54628781  0.36256451     0.42000
Cu52       Cu  0.47066884  0.41275649  0.36228130     0.43900
N53         N  0.47151688  0.40242840  0.29772411    -0.34400
N54         N  0.47875488  0.37827653  0.32250638    -0.28600
C55         C  0.48381452  0.32906506  0.31736615    -0.04700
C56         C  0.47946925  0.32154438  0.28782395     0.07500
C57         C  0.47181376  0.36910505  0.27609844     0.01300
H58         H  0.48778847  0.30101110  0.33408270     0.09000
H59         H  0.46064923  0.37897016  0.25355607     0.08000
N60         N  0.45197767  0.45457726  0.39953962    -0.35800
N61         N  0.43097591  0.50349150  0.39978198    -0.28000
C62         C  0.42534182  0.51921520  0.42730647    -0.03200
C63         C  0.44358384  0.47815292  0.44512914     0.05400
C64         C  0.46000998  0.43783195  0.42681727     0.03500
H65         H  0.41010246  0.55769973  0.43381292     0.08600
H66         H  0.47808725  0.39917375  0.43280804     0.07400
C67         C  0.09385696  0.77389413  0.64929611     0.03500
C68         C  0.07475966  0.77369054  0.67951259    -0.12700
C69         C  0.01917333  0.73040051  0.69447690     0.01000
C70         C  0.98627437  0.68664931  0.67858253    -0.11200
C71         C  0.01581761  0.68491333  0.64874266     0.03400
C72         C  0.06614509  0.72894170  0.63415441    -0.10600
H73         H  0.10630158  0.80714756  0.69147062     0.09000
H74         H  0.93364967  0.65368119  0.68933972     0.06600
H75         H  0.08655464  0.72787552  0.61108225     0.06400
N76         N  0.04711841  0.37631408  0.59909767    -0.27000
N77         N  0.04798437  0.40091359  0.62376939    -0.34800
C78         C  0.08202103  0.36855058  0.64534462     0.01400
C79         C  0.10408186  0.32103000  0.63381507     0.07400
C80         C  0.08052978  0.32778756  0.60432732    -0.05700
H81         H  0.09339352  0.37938367  0.66774091     0.08100
H82         H  0.08982031  0.29980138  0.58763506     0.09300
Cu83       Cu  0.01200448  0.47801235  0.62681636     0.44200
Cu84       Cu  0.00743928  0.40993080  0.55917113     0.42000
Cu85       Cu  0.95803586  0.54424936  0.55938968     0.43900
N86         N  0.99286627  0.55550109  0.62363591    -0.34400
N87         N  0.97540301  0.57951928  0.59890808    -0.28600
C88         C  0.97770804  0.62887560  0.60387823    -0.04700
C89         C  0.99696707  0.63667248  0.63325643     0.07500
C90         C  0.00588333  0.58911154  0.64505082     0.01300
H91         H  0.96759763  0.65688206  0.58719134     0.09000
H92         H  0.02713891  0.57946016  0.66746543     0.08000
N93         N  0.95444501  0.50151574  0.52233630    -0.35800
N94         N  0.97271068  0.45251212  0.52211391    -0.28000
C95         C  0.96969968  0.43654767  0.49462093    -0.03200
C96         C  0.94875698  0.47752886  0.47680210     0.05400
C97         C  0.93934479  0.51803964  0.49507861     0.03500
H98         H  0.98428113  0.39807543  0.48812122     0.08600
H99         H  0.92500033  0.55679060  0.48905821     0.07400
C100        C  0.42189281  0.77398912  0.77176279     0.03500
C101        C  0.44455034  0.72877478  0.78681201    -0.12700
C102        C  0.49203355  0.68455787  0.77220472     0.01000
C103        C  0.52364931  0.68629880  0.74240905    -0.11200
C104        C  0.49551517  0.73038358  0.72657900     0.03400
C105        C  0.44309331  0.77391631  0.74158325    -0.10600
H106        H  0.42179888  0.72764677  0.80984392     0.09000
H107        H  0.57363374  0.65304345  0.73163935     0.06600
H108        H  0.41568481  0.80770369  0.72967450     0.06400
N109        N  0.43078641  0.37647204  0.82212197    -0.27000
N110        N  0.43564193  0.40085811  0.79738747    -0.34800
C111        C  0.40404947  0.36845210  0.77576354     0.01400
C112        C  0.37775116  0.32112803  0.78733164     0.07400
C113        C  0.39611707  0.32803986  0.81688422    -0.05700
H114        H  0.39828236  0.37909269  0.75329963     0.08100
H115        H  0.38251382  0.30022739  0.83361062     0.09300
Cu116      Cu  0.47731669  0.47768047  0.79419978     0.44200
Cu117      Cu  0.46673929  0.41003853  0.86212503     0.42000
Cu118      Cu  0.53190173  0.54369322  0.86160009     0.43900
N119        N  0.50191057  0.55501903  0.79730010    -0.34400
N120        N  0.51963366  0.57893833  0.82204836    -0.28600
C121        C  0.52179637  0.62827590  0.81707352    -0.04700
C122        C  0.50532204  0.63617447  0.78766688     0.07500
C123        C  0.49319435  0.58868463  0.77585506     0.01300
H124        H  0.53325813  0.65620103  0.83377695     0.09000
H125        H  0.47291919  0.57916456  0.75340173     0.08000
N126        N  0.52944926  0.50131541  0.89876788    -0.35800
N127        N  0.50498503  0.45251216  0.89912463    -0.28000
C128        C  0.50689448  0.43672454  0.92665496    -0.03200
C129        C  0.53371893  0.47762889  0.94434682     0.05400
C130        C  0.54754808  0.51789799  0.92596534     0.03500
H131        H  0.48845196  0.39842094  0.93326098     0.08600
H132        H  0.56784230  0.55651019  0.93186565     0.07400
C133        C  0.15273627  0.27396309  0.64938315     0.03500
C134        C  0.17346687  0.27381229  0.67958168    -0.12700
C135        C  0.22947419  0.23048815  0.69452085     0.01000
C136        C  0.26116183  0.18666511  0.67861472    -0.11200
C137        C  0.23004417  0.18490641  0.64881086     0.03400
C138        C  0.17928641  0.22894796  0.63425346    -0.10600
H139        H  0.14298501  0.30735529  0.69154283     0.09000
H140        H  0.31414958  0.15366733  0.68931264     0.06600
H141        H  0.15753834  0.22783426  0.61119084     0.06400
N142        N  0.19881362  0.87628126  0.59905322    -0.27000
N143        N  0.19748843  0.90086687  0.62372942    -0.34800
C144        C  0.16358151  0.86848420  0.64528688     0.01400
C145        C  0.14209327  0.82096649  0.63373767     0.07400
C146        C  0.16583163  0.82774216  0.60425978    -0.05700
H147        H  0.15185102  0.87930002  0.66766943     0.08100
H148        H  0.15709927  0.79976042  0.58756596     0.09300
Cu149      Cu  0.23276447  0.97797237  0.62683183     0.44200
Cu150      Cu  0.23875802  0.90992305  0.55915785     0.42000
Cu151      Cu  0.28645856  0.04424520  0.55944160     0.43900
N152        N  0.25155135  0.05546983  0.62368887    -0.34400
N153        N  0.26879978  0.07949023  0.59896245    -0.28600
C154        C  0.26675139  0.12884283  0.60393992    -0.04700
C155        C  0.24792356  0.13664052  0.63332131     0.07500
C156        C  0.23894577  0.08908372  0.64511309     0.01300
H157        H  0.27701923  0.15685228  0.58725847     0.09000
H158        H  0.21814787  0.07944849  0.66753913     0.08000
N159        N  0.29206838  0.00152878  0.52238935    -0.35800
N160        N  0.27445399  0.95251919  0.52214656    -0.28000
C161        C  0.27916077  0.93655216  0.49466270    -0.03200
C162        C  0.30056279  0.97752894  0.47686846     0.05400
C163        C  0.30844541  0.01805329  0.49515080     0.03500
H164        H  0.26552062  0.89804420  0.48814532     0.08600
H165        H  0.32272170  0.05679234  0.48914807     0.07400
C166        C  0.33103642  0.27403867  0.77171479     0.03500
C167        C  0.30936445  0.22882277  0.78677783    -0.12700
C168        C  0.26119148  0.18464482  0.77221880     0.01000
C169        C  0.22790500  0.18639635  0.74246409    -0.11200
C170        C  0.25493416  0.23048568  0.72660250     0.03400
C171        C  0.30799380  0.27400789  0.74155812    -0.10600
H172        H  0.33359523  0.22763873  0.80978141     0.09000
H173        H  0.17739709  0.15316157  0.73177740     0.06600
H174        H  0.33438866  0.30781140  0.72963846     0.06400
N175        N  0.32304709  0.87650500  0.82218928    -0.27000
N176        N  0.31918550  0.90093815  0.79746649    -0.34800
C177        C  0.35077931  0.86852032  0.77584708     0.01400
C178        C  0.37600024  0.82113189  0.78740169     0.07400
C179        C  0.35708065  0.82802349  0.81694768    -0.05700
H180        H  0.35720589  0.87919686  0.75338924     0.08100
H181        H  0.36950232  0.80014470  0.83366241     0.09300
Cu182      Cu  0.27812088  0.97780381  0.79428363     0.44200
Cu183      Cu  0.28563633  0.91008870  0.86215435     0.42000
Cu184      Cu  0.21950523  0.04382030  0.86159313     0.43900
N185        N  0.25295726  0.05514569  0.79734477    -0.34400
N186        N  0.23392672  0.07907633  0.82206966    -0.28600
C187        C  0.23132282  0.12841050  0.81708210    -0.04700
C188        C  0.24875421  0.13628078  0.78769079     0.07500
C189        C  0.26199862  0.08879819  0.77589896     0.01300
H190        H  0.21852420  0.15635502  0.83375584     0.09000
H191        H  0.28301588  0.07928680  0.75345932     0.08000
N192        N  0.21953148  0.00134455  0.89872014    -0.35800
N193        N  0.24439146  0.95254092  0.89908921    -0.28000
C194        C  0.24065875  0.93670884  0.92660256    -0.03200
C195        C  0.21225841  0.97757434  0.94427137     0.05400
C196        C  0.19937628  0.01787889  0.92589509     0.03500
H197        H  0.25907904  0.89837505  0.93322085     0.08600
H198        H  0.17844745  0.05647213  0.93178426     0.07400
C199        C  0.17354331  0.68396967  0.14921246     0.03500
C200        C  0.18851247  0.72925720  0.13418979    -0.12700
C201        C  0.23232233  0.77368381  0.14869800     0.01000
C202        C  0.26851056  0.77215972  0.17838300    -0.11200
C203        C  0.24587014  0.72794003  0.19432401     0.03400
C204        C  0.19567790  0.68415737  0.17935992    -0.10600
H205        H  0.16243139  0.73020344  0.11125042     0.09000
H206        H  0.31741057  0.80573149  0.18887185     0.06600
H207        H  0.17200767  0.65013753  0.19115107     0.06400
N208        N  0.13703823  0.08048829  0.09833285    -0.27000
N209        N  0.14955690  0.05633003  0.12307803    -0.34800
C210        C  0.13326060  0.08915679  0.14483387     0.01400
C211        C  0.10920774  0.13654820  0.13334195     0.07400
C212        C  0.11261523  0.12927965  0.10369730    -0.05700
H213        H  0.13642077  0.07875252  0.16734169     0.08100
H214        H  0.09470164  0.15701578  0.08705434     0.09300
Cu215      Cu  0.18349386  0.97958962  0.12639009     0.44200
Cu216      Cu  0.15012827  0.04640461  0.05819783     0.42000
Cu217      Cu  0.22358057  0.91348625  0.05888823     0.43900
N218        N  0.21618957  0.90277002  0.12337538    -0.34400
N219        N  0.23055788  0.87884553  0.09859067    -0.28600
C220        C  0.24276965  0.82969752  0.10366285    -0.04700
C221        C  0.23605336  0.82197479  0.13316273     0.07500
C222        C  0.21932338  0.86933519  0.14495246     0.01300
H223        H  0.25361609  0.80176854  0.08693024     0.09000
H224        H  0.20383792  0.87886429  0.16748569     0.08000
N225        N  0.20554729  0.95498759  0.02153568    -0.35800
N226        N  0.17814507  0.00368332  0.02112687    -0.28000
C227        C  0.17523229  0.01924828  0.99356452    -0.03200
C228        C  0.20193622  0.97829537  0.97590163     0.05400
C229        C  0.22046874  0.93821083  0.99433588     0.03500
H230        H  0.15600287  0.05754747  0.98692927     0.08600
H231        H  0.24466299  0.89972270  0.98849214     0.07400
C232        C  0.34580932  0.68390322  0.27152729     0.03500
C233        C  0.32843022  0.72909297  0.28657917    -0.12700
C234        C  0.28297394  0.77347136  0.27212628     0.01000
C235        C  0.24848436  0.77199207  0.24238914    -0.11200
C236        C  0.27382776  0.72791099  0.22640425     0.03400
C237        C  0.32518809  0.68415950  0.24135387    -0.10600
H238        H  0.35318286  0.72995270  0.30957631     0.09000
H239        H  0.19822088  0.80542027  0.23188653     0.06600
H240        H  0.35052078  0.65022614  0.22955833     0.06400
N241        N  0.34607232  0.08049261  0.32253751    -0.27000
N242        N  0.33195347  0.05632416  0.29782267    -0.36400
C243        C  0.34644187  0.08912874  0.27602244     0.01400
C244        C  0.37106176  0.13652210  0.28746091     0.07400
C245        C  0.36977039  0.12926296  0.31711462    -0.05700
H246        H  0.34267646  0.07869017  0.25351502     0.08100
H247        H  0.38957586  0.15697437  0.33373565     0.09300
Cu248      Cu  0.30231117  0.97950511  0.29471739     0.44200
Cu249      Cu  0.33916813  0.04631354  0.36269160     0.42000
Cu250      Cu  0.28401415  0.91270997  0.36233862     0.43900
N251        N  0.28230818  0.90246245  0.29777853    -0.34400
N252        N  0.27572007  0.87826280  0.32254706    -0.28600
C253        C  0.27069127  0.82906362  0.31737185    -0.04700
C254        C  0.27435651  0.82160157  0.28782004     0.07500
C255        C  0.28160360  0.86918480  0.27612786     0.01300
H256        H  0.26702305  0.80097408  0.33407032     0.09000
H257        H  0.29208464  0.87909477  0.25357989     0.08000
N258        N  0.30144215  0.95455064  0.39960963    -0.35800
N259        N  0.32198764  0.00346833  0.39987476    -0.28000
C260        C  0.32626448  0.01919746  0.42740375    -0.03200
C261        C  0.30757737  0.97813662  0.44520593     0.05400
C262        C  0.29235315  0.93780639  0.42687992     0.03500
H263        H  0.34067973  0.05768103  0.43392321     0.08600
H264        H  0.27416517  0.89917341  0.43285025     0.07400
C265        C  0.57361477  0.18396092  0.14914761     0.03500
C266        C  0.55300557  0.18412329  0.17931657    -0.12700
C267        C  0.50341993  0.22789855  0.19434150     0.01000
C268        C  0.47980766  0.27214234  0.17844443    -0.11200
C269        C  0.51460503  0.27370032  0.14872664     0.03400
C270        C  0.55785045  0.22927442  0.13415519    -0.10600
H271        H  0.57735494  0.15009953  0.19107882     0.09000
H272        H  0.43128139  0.30570333  0.18900019     0.06600
H273        H  0.58276907  0.23023350  0.11118842     0.06400
N274        N  0.60760203  0.58053106  0.09846096    -0.27000
N275        N  0.59583216  0.55638456  0.12321629    -0.34800
C276        C  0.61314627  0.58920346  0.14495758     0.01400
C277        C  0.63710215  0.63657006  0.13344760     0.07400
C278        C  0.63254924  0.62929726  0.10380610    -0.05700
H279        H  0.61074021  0.57880767  0.16748321     0.08100
H280        H  0.65007938  0.65700845  0.08714772     0.09300
Cu281      Cu  0.56166370  0.47965757  0.12653291     0.44200
Cu282      Cu  0.59307607  0.54648450  0.05832149     0.42000
Cu283      Cu  0.51912019  0.41366813  0.05899831     0.43900
N284        N  0.52897801  0.40284558  0.12348134    -0.34400
N285        N  0.51367220  0.37897408  0.09869240    -0.28600
C286        C  0.50194895  0.32981481  0.10373989    -0.04700
C287        C  0.50996005  0.32202616  0.13322712     0.07500
C288        C  0.52693877  0.36936233  0.14503668     0.01300
H289        H  0.49059930  0.30192355  0.08699814     0.09000
H290        H  0.54338513  0.37883861  0.16755717     0.08000
N291        N  0.53723986  0.45513814  0.02163590    -0.35800
N292        N  0.56482284  0.50381270  0.02123241    -0.28000
C293        C  0.56854851  0.51935054  0.99366672    -0.03200
C294        C  0.54225415  0.47839940  0.97599388     0.05400
C295        C  0.52304000  0.43834918  0.99442978     0.03500
H296        H  0.58845272  0.55761668  0.98703265     0.08600
H297        H  0.49921611  0.39984593  0.98857700     0.07400
C298        C  0.90697538  0.18387925  0.27162578     0.03500
C299        C  0.92522844  0.22905554  0.28666468    -0.12700
C300        C  0.97024752  0.27339701  0.27216684     0.01000
C301        C  0.00351171  0.27188595  0.24240544    -0.11200
C302        C  0.97713307  0.22784338  0.22644413     0.03400
C303        C  0.92625243  0.18412834  0.24143282    -0.10600
H304        H  0.90151878  0.22993605  0.30968157     0.09000
H305        H  0.05351546  0.30526049  0.23185403     0.06600
H306        H  0.90016309  0.15023009  0.22964815     0.06400
N307        N  0.90740418  0.58046610  0.32240559    -0.27000
N308        N  0.92133793  0.55630000  0.29768608    -0.34800
C309        C  0.90663820  0.58912189  0.27589142     0.01400
C310        C  0.88206249  0.63652053  0.28733979     0.07400
C311        C  0.88361389  0.62924711  0.31699144    -0.05700
H312        H  0.91023088  0.57869359  0.25337641     0.08100
H313        H  0.86381833  0.65695679  0.33361807     0.09300
Cu314      Cu  0.95099179  0.47946479  0.29459039     0.44200
Cu315      Cu  0.91441618  0.54628781  0.36256450     0.42000
Cu316      Cu  0.97066857  0.41275648  0.36228130     0.43900
N317        N  0.97151663  0.40242841  0.29772412    -0.34400
N318        N  0.97875463  0.37827653  0.32250638    -0.28600
C319        C  0.98381434  0.32906507  0.31736614    -0.04700
C320        C  0.97946913  0.32154440  0.28782395     0.07500
C321        C  0.97181358  0.36910509  0.27609844     0.01300
H322        H  0.98778827  0.30101106  0.33408271     0.09000
H323        H  0.96064907  0.37897017  0.25355603     0.08000
N324        N  0.95197762  0.45457727  0.39953962    -0.35800
N325        N  0.93097585  0.50349151  0.39978198    -0.28000
C326        C  0.92534153  0.51921514  0.42730645    -0.03200
C327        C  0.94358409  0.47815295  0.44512913     0.05400
C328        C  0.96000971  0.43783188  0.42681728     0.03500
H329        H  0.91010294  0.55770006  0.43381296     0.08600
H330        H  0.97808770  0.39917411  0.43280800     0.07400
C331        C  0.59385685  0.77389423  0.64929614     0.03500
C332        C  0.57475979  0.77368988  0.67951236    -0.12700
C333        C  0.51917328  0.73040063  0.69447692     0.01000
C334        C  0.48627419  0.68664926  0.67858258    -0.11200
C335        C  0.51581750  0.68491340  0.64874266     0.03400
C336        C  0.56614492  0.72894173  0.63415445    -0.10600
H337        H  0.60630334  0.80715086  0.69147169     0.09000
H338        H  0.43365030  0.65368174  0.68933957     0.06600
H339        H  0.58655451  0.72787558  0.61108215     0.06400
N340        N  0.54711811  0.37631406  0.59909767    -0.27000
N341        N  0.54798410  0.40091357  0.62376939    -0.34800
C342        C  0.58202096  0.36855055  0.64534464     0.01400
C343        C  0.60408199  0.32102997  0.63381508     0.07400
C344        C  0.58052972  0.32778752  0.60432732    -0.05700
H345        H  0.59339329  0.37938367  0.66774080     0.08100
H346        H  0.58982006  0.29980152  0.58763509     0.09300
Cu347      Cu  0.51200445  0.47801234  0.62681636     0.44200
Cu348      Cu  0.50743903  0.40993079  0.55917114     0.42000
Cu349      Cu  0.45803591  0.54424936  0.55938969     0.43900
N350        N  0.49286655  0.55550110  0.62363596    -0.34400
N351        N  0.47540308  0.57951932  0.59890809    -0.28600
C352        C  0.47770703  0.62887542  0.60387836    -0.04700
C353        C  0.49696727  0.63667250  0.63325646     0.07500
C354        C  0.50588421  0.58911168  0.64505053     0.01300
H355        H  0.46759807  0.65688285  0.58719088     0.09000
H356        H  0.52713992  0.57945966  0.66746672     0.08000
N357        N  0.45444517  0.50151571  0.52233631    -0.35800
N358        N  0.47271018  0.45251208  0.52211391    -0.28000
C359        C  0.46969957  0.43654768  0.49462094    -0.03200
C360        C  0.44875692  0.47752881  0.47680210     0.05400
C361        C  0.43934491  0.51803987  0.49507858     0.03500
H362        H  0.48428066  0.39807519  0.48812120     0.08600
H363        H  0.42500047  0.55678949  0.48905839     0.07400
C364        C  0.92189277  0.77398907  0.77176282     0.03500
C365        C  0.94455007  0.72877475  0.78681206    -0.12700
C366        C  0.99203354  0.68455783  0.77220473     0.01000
C367        C  0.02364941  0.68629874  0.74240904    -0.11200
C368        C  0.99551552  0.73038352  0.72657903     0.03400
C369        C  0.94309369  0.77391682  0.74158309    -0.10600
H370        H  0.92179860  0.72764668  0.80984380     0.09000
H371        H  0.07363409  0.65304354  0.73163939     0.06600
H372        H  0.91568638  0.80770121  0.72967530     0.06400
N373        N  0.93078683  0.37647197  0.82212198    -0.27000
N374        N  0.93564177  0.40085808  0.79738748    -0.34800
C375        C  0.90404936  0.36845205  0.77576357     0.01400
C376        C  0.87775110  0.32112795  0.78733166     0.07400
C377        C  0.89611684  0.32804014  0.81688406    -0.05700
H378        H  0.89828181  0.37909269  0.75329958     0.08100
H379        H  0.88251440  0.30022603  0.83361137     0.09300
Cu380      Cu  0.97731651  0.47768046  0.79419979     0.44200
Cu381      Cu  0.96673917  0.41003853  0.86212504     0.42000
Cu382      Cu  0.03190200  0.54369323  0.86160010     0.43900
N383        N  0.00191065  0.55501901  0.79730010    -0.34400
N384        N  0.01963386  0.57893832  0.82204836    -0.28600
C385        C  0.02179657  0.62827589  0.81707352    -0.04700
C386        C  0.00532218  0.63617445  0.78766688     0.07500
C387        C  0.99319410  0.58868462  0.77585509     0.01300
H388        H  0.03325855  0.65620102  0.83377696     0.09000
H389        H  0.97291921  0.57916449  0.75340164     0.08000
N390        N  0.02944936  0.50131532  0.89876786    -0.35800
N391        N  0.00498507  0.45251214  0.89912462    -0.28000
C392        C  0.00689472  0.43672459  0.92665496    -0.03200
C393        C  0.03371899  0.47762879  0.94434683     0.05400
C394        C  0.04754874  0.51789879  0.92596546     0.03500
H395        H  0.98845154  0.39842059  0.93326110     0.08600
H396        H  0.06784073  0.55650684  0.93186508     0.07400
C397        C  0.65273635  0.27396300  0.64938316     0.03500
C398        C  0.67346711  0.27381296  0.67958192    -0.12700
C399        C  0.72947416  0.23048802  0.69452084     0.01000
C400        C  0.76116166  0.18666512  0.67861469    -0.11200
C401        C  0.73004415  0.18490633  0.64881089     0.03400
C402        C  0.67928714  0.22894798  0.63425307    -0.10600
H403        H  0.64298675  0.30735199  0.69154179     0.09000
H404        H  0.81414996  0.15366675  0.68931282     0.06600
H405        H  0.65753910  0.22783419  0.61119251     0.06400
N406        N  0.69881361  0.87628127  0.59905322    -0.27000
N407        N  0.69748823  0.90086688  0.62372941    -0.34800
C408        C  0.66358128  0.86848424  0.64528686     0.01400
C409        C  0.64209319  0.82096651  0.63373766     0.07400
C410        C  0.66583166  0.82774217  0.60425978    -0.05700
H411        H  0.65185058  0.87930004  0.66766952     0.08100
H412        H  0.65709931  0.79976037  0.58756597     0.09300
Cu413      Cu  0.73276422  0.97797237  0.62683183     0.44200
Cu414      Cu  0.73875904  0.90992304  0.55915785     0.42000
Cu415      Cu  0.78645841  0.04424521  0.55944160     0.43900
N416        N  0.75155125  0.05546982  0.62368887    -0.34400
N417        N  0.76879968  0.07949023  0.59896245    -0.28600
C418        C  0.76675119  0.12884284  0.60393991    -0.04700
C419        C  0.74792402  0.13664049  0.63332131     0.07500
C420        C  0.73894557  0.08908371  0.64511306     0.01300
H421        H  0.77701984  0.15685217  0.58725854     0.09000
H422        H  0.71814832  0.07944841  0.66753927     0.08000
N423        N  0.79206852  0.00152883  0.52238934    -0.35800
N424        N  0.77445491  0.95251923  0.52214657    -0.28000
C425        C  0.77916174  0.93655187  0.49466266    -0.03200
C426        C  0.80056279  0.97752902  0.47686846     0.05400
C427        C  0.80844591  0.01805318  0.49515083     0.03500
H428        H  0.76552087  0.89804556  0.48814554     0.08600
H429        H  0.82272115  0.05679309  0.48914798     0.07400
C430        C  0.83103605  0.27403859  0.77171477     0.03500
C431        C  0.80936422  0.22882270  0.78677780    -0.12700
C432        C  0.76119129  0.18464471  0.77221876     0.01000
C433        C  0.72790570  0.18639715  0.74246436    -0.11200
C434        C  0.75493388  0.23048557  0.72660248     0.03400
C435        C  0.80799362  0.27400781  0.74155811    -0.10600
H436        H  0.83359511  0.22763863  0.80978147     0.09000
H437        H  0.67739239  0.15315785  0.73177616     0.06600
H438        H  0.83438867  0.30781127  0.72963845     0.06400
N439        N  0.82304751  0.87650506  0.82218926    -0.27000
N440        N  0.81918537  0.90093816  0.79746649    -0.34800
C441        C  0.85077909  0.86852034  0.77584696     0.01400
C442        C  0.87600046  0.82113191  0.78740169     0.07400
C443        C  0.85708048  0.82802320  0.81694783    -0.05700
H444        H  0.85720590  0.87919669  0.75338973     0.08100
H445        H  0.86950298  0.80014593  0.83366173     0.09300
Cu446      Cu  0.77812080  0.97780381  0.79428363     0.44200
Cu447      Cu  0.78563615  0.91008870  0.86215435     0.42000
Cu448      Cu  0.71950496  0.04382030  0.86159312     0.43900
N449        N  0.75295722  0.05514567  0.79734472    -0.34400
N450        N  0.73392651  0.07907632  0.82206964    -0.28600
C451        C  0.73132246  0.12841046  0.81708206    -0.04700
C452        C  0.74875407  0.13628073  0.78769074     0.07500
C453        C  0.76199935  0.08879827  0.77589926     0.01300
H454        H  0.71852365  0.15635502  0.83375580     0.09000
H455        H  0.78301635  0.07928617  0.75345789     0.08000
N456        N  0.71953196  0.00134460  0.89872015    -0.35800
N457        N  0.74439139  0.95254093  0.89908921    -0.28000
C458        C  0.74065883  0.93670884  0.92660256    -0.03200
C459        C  0.71225912  0.97757439  0.94427138     0.05400
C460        C  0.69937644  0.01787868  0.92589506     0.03500
H461        H  0.75907952  0.89837512  0.93322085     0.08600
H462        H  0.67844834  0.05647310  0.93178441     0.07400
C463        C  0.67354328  0.68396967  0.14921252     0.03500
C464        C  0.68851306  0.72925718  0.13418941    -0.12700
C465        C  0.73232228  0.77368383  0.14869807     0.01000
C466        C  0.76851027  0.77215972  0.17838302    -0.11200
C467        C  0.74586985  0.72794004  0.19432405     0.03400
C468        C  0.69567766  0.68415737  0.17935995    -0.10600
H469        H  0.66243271  0.73020345  0.11125228     0.09000
H470        H  0.81741043  0.80573163  0.18887193     0.06600
H471        H  0.67200735  0.65013762  0.19115109     0.06400
N472        N  0.63703822  0.08048830  0.09833285    -0.27000
N473        N  0.64955708  0.05633004  0.12307803    -0.34800
C474        C  0.63326066  0.08915680  0.14483390     0.01400
C475        C  0.60920798  0.13654822  0.13334195     0.07400
C476        C  0.61261503  0.12927962  0.10369731    -0.05700
H477        H  0.63642159  0.07875257  0.16734157     0.08100
H478        H  0.59470188  0.15701595  0.08705424     0.09300
Cu479      Cu  0.68349470  0.97958965  0.12639009     0.44200
Cu480      Cu  0.65012791  0.04640460  0.05819783     0.42000
Cu481      Cu  0.72358042  0.91348625  0.05888824     0.43900
N482        N  0.71618955  0.90277001  0.12337538    -0.34400
N483        N  0.73055769  0.87884551  0.09859067    -0.28600
C484        C  0.74276940  0.82969751  0.10366286    -0.04700
C485        C  0.73605328  0.82197478  0.13316273     0.07500
C486        C  0.71932342  0.86933519  0.14495247     0.01300
H487        H  0.75361576  0.80176855  0.08693024     0.09000
H488        H  0.70383798  0.87886428  0.16748566     0.08000
N489        N  0.70554741  0.95498759  0.02153567    -0.35800
N490        N  0.67814505  0.00368333  0.02112687    -0.28000
C491        C  0.67523207  0.01924821  0.99356454    -0.03200
C492        C  0.70193666  0.97829537  0.97590163     0.05400
C493        C  0.72046948  0.93821091  0.99433589     0.03500
H494        H  0.65600287  0.05754775  0.98692923     0.08600
H495        H  0.74466384  0.89972232  0.98849210     0.07400
C496        C  0.84580944  0.68390326  0.27152737     0.03500
C497        C  0.82843111  0.72909302  0.28657881    -0.12700
C498        C  0.78297388  0.77347137  0.27212635     0.01000
C499        C  0.74848403  0.77199211  0.24238917    -0.11200
C500        C  0.77382751  0.72791103  0.22640431     0.03400
C501        C  0.82518806  0.68415912  0.24135377    -0.10600
H502        H  0.85318393  0.72995273  0.30957804     0.09000
H503        H  0.69822068  0.80542015  0.23188664     0.06600
H504        H  0.85052000  0.65022797  0.22955896     0.06400
N505        N  0.84607235  0.08049269  0.32253754    -0.27000
N506        N  0.83195346  0.05632420  0.29782268    -0.36400
C507        C  0.84644249  0.08912877  0.27602246     0.01400
C508        C  0.87106172  0.13652220  0.28746094     0.07400
C509        C  0.86977098  0.12926256  0.31711439    -0.05700
H510        H  0.84267607  0.07869024  0.25351504     0.08100
H511        H  0.88957604  0.15697629  0.33373673     0.09300
Cu512      Cu  0.80231098  0.97950512  0.29471740     0.44200
Cu513      Cu  0.83916802  0.04631354  0.36269160     0.42000
Cu514      Cu  0.78401395  0.91270997  0.36233862     0.43900
N515        N  0.78230790  0.90246245  0.29777853    -0.34400
N516        N  0.77571980  0.87826281  0.32254706    -0.28600
C517        C  0.77069112  0.82906363  0.31737187    -0.04700
C518        C  0.77435645  0.82160158  0.28782005     0.07500
C519        C  0.78160344  0.86918480  0.27612787     0.01300
H520        H  0.76702290  0.80097406  0.33407033     0.09000
H521        H  0.79208449  0.87909478  0.25357987     0.08000
N522        N  0.80144192  0.95455065  0.39960963    -0.35800
N523        N  0.82198799  0.00346832  0.39987476    -0.28000
C524        C  0.82626447  0.01919756  0.42740375    -0.03200
C525        C  0.80757759  0.97813661  0.44520593     0.05400
C526        C  0.79235313  0.93780637  0.42687993     0.03500
H527        H  0.84068031  0.05768061  0.43392312     0.08600
H528        H  0.77416502  0.89917356  0.43285024     0.07400
loop_ 
_geom_bond_atom_site_label_1 
_geom_bond_atom_site_label_2 
_geom_bond_distance 
_geom_bond_site_symmetry_2 
_ccdc_geom_bond_type 
C1            C2   1.407       .  A
C1            C6   1.406       .  A
C1          C211   1.490       .  S
C2            C3   1.409       .  A
C2            H7   1.078       .  S
C3            C4   1.408   1_455  A
C3          C302   1.500   1_455  S
C4            C5   1.400   1_655  A
C4            H8   1.080       .  S
C5            C6   1.404       .  A
C5           C23   1.484       .  S
C6            H9   1.080       .  S
N10          N11   1.321       .  A
N10          C14   1.344       .  A
N10         Cu18   2.077       .  S
N11          C12   1.345       .  A
N11         Cu17   2.080       .  S
C12          C13   1.390       .  A
C12          H15   1.082       .  S
C13          C14   1.389       .  A
C13         C199   1.490       .  S
C14          H16   1.080       .  S
Cu17         N20   2.081       .  S
Cu18         N28   2.076       .  S
Cu19         N21   2.064       .  S
Cu19         N27   2.064       .  S
N20          N21   1.321       .  A
N20          C24   1.345       .  A
N21          C22   1.343       .  A
C22          C23   1.385       .  A
C22          H25   1.082   1_455  S
C23          C24   1.389       .  A
C24          H26   1.081       .  S
N27          N28   1.322       .  A
N27          C31   1.344   1_554  A
N28          C29   1.345   1_554  A
C29          C30   1.384       .  A
C29          H32   1.082       .  S
C30          C31   1.381       .  A
C30         C393   1.469       .  S
C31          H33   1.082   1_455  S
C34          C35   1.405       .  A
C34          C39   1.407       .  A
C34         C244   1.490       .  S
C35          C36   1.403       .  A
C35          H40   1.081       .  S
C36          C37   1.400       .  A
C36          C56   1.485       .  S
C37          C38   1.408       .  A
C37          H41   1.079       .  S
C38          C39   1.410       .  A
C38         C267   1.500       .  S
C39          H42   1.077       .  S
N43          N44   1.321       .  A
N43          C47   1.344       .  A
N43         Cu51   2.077       .  S
N44          C45   1.345       .  A
N44         Cu50   2.079       .  S
C45          C46   1.390       .  A
C45          H48   1.081       .  S
C46          C47   1.389       .  A
C46         C232   1.490       .  S
C47          H49   1.081       .  S
Cu50         N53   2.079       .  S
Cu51         N61   2.077       .  S
Cu52         N54   2.065       .  S
Cu52         N60   2.065       .  S
N53          N54   1.321       .  A
N53          C57   1.344       .  A
N54          C55   1.343       .  A
C55          C56   1.385       .  A
C55          H58   1.081       .  S
C56          C57   1.389       .  A
C57          H59   1.081       .  S
N60          N61   1.322       .  A
N60          C64   1.344       .  A
N61          C62   1.345       .  A
C62          C63   1.384       .  A
C62          H65   1.082       .  S
C63          C64   1.381       .  A
C63         C360   1.470       .  S
C64          H66   1.082       .  S
C67          C68   1.408       .  A
C67          C72   1.410       .  A
C67         C145   1.494       .  S
C68          C69   1.409       .  A
C68          H73   1.079       .  S
C69          C70   1.406   1_455  A
C69         C368   1.498   1_455  S
C70          C71   1.400   1_655  A
C70          H74   1.081       .  S
C71          C72   1.407       .  A
C71          C89   1.487   1_455  S
C72          H75   1.080       .  S
N76          N77   1.321       .  A
N76          C80   1.346       .  A
N76         Cu84   2.078       .  S
N77          C78   1.346       .  A
N77         Cu83   2.090       .  S
C78          C79   1.392       .  A
C78          H81   1.082       .  S
C79          C80   1.389       .  A
C79         C133   1.494       .  S
C80          H82   1.081       .  S
Cu83         N86   2.091   1_455  S
Cu84         N94   2.078   1_455  S
Cu85         N87   2.067       .  S
Cu85         N93   2.067       .  S
N86          N87   1.321       .  A
N86          C90   1.345   1_655  A
N87          C88   1.346       .  A
C88          C89   1.385       .  A
C88          H91   1.081       .  S
C89          C90   1.391   1_655  A
C90          H92   1.082       .  S
N93          N94   1.322       .  A
N93          C97   1.344       .  A
N94          C95   1.345       .  A
C95          C96   1.384       .  A
C95          H98   1.081       .  S
C96          C97   1.381       .  A
C96         C327   1.470       .  S
C97          H99   1.082       .  S
C100        C101   1.409       .  A
C100        C105   1.408       .  A
C100        C178   1.494       .  S
C101        C102   1.406       .  A
C101        H106   1.080       .  S
C102        C103   1.400       .  A
C102        C122   1.487       .  S
C103        C104   1.407       .  A
C103        H107   1.081       .  S
C104        C105   1.409       .  A
C104        C333   1.498       .  S
C105        H108   1.079       .  S
N109        N110   1.321       .  A
N109        C113   1.345       .  A
N109       Cu117   2.078       .  S
N110        C111   1.346       .  A
N110       Cu116   2.089       .  S
C111        C112   1.392       .  A
C111        H114   1.081       .  S
C112        C113   1.389       .  A
C112        C166   1.494       .  S
C113        H115   1.081       .  S
Cu116       N119   2.089       .  S
Cu117       N127   2.078       .  S
Cu118       N120   2.066       .  S
Cu118       N126   2.066       .  S
N119        N120   1.321       .  A
N119        C123   1.345       .  A
N120        C121   1.345       .  A
C121        C122   1.385       .  A
C121        H124   1.081       .  S
C122        C123   1.391       .  A
C123        H125   1.082       .  S
N126        N127   1.322       .  A
N126        C130   1.344       .  A
N127        C128   1.345       .  A
C128        C129   1.384       .  A
C128        H131   1.081       .  S
C129        C130   1.381       .  A
C129        C294   1.469       .  S
C130        H132   1.082       .  S
C133        C134   1.408       .  A
C133        C138   1.410       .  A
C134        C135   1.409       .  A
C134        H139   1.079       .  S
C135        C136   1.406       .  A
C135        C170   1.498       .  S
C136        C137   1.400       .  A
C136        H140   1.080       .  S
C137        C138   1.407       .  A
C137        C155   1.487       .  S
C138        H141   1.081       .  S
N142        N143   1.321       .  A
N142        C146   1.346       .  A
N142       Cu150   2.078       .  S
N143        C144   1.346       .  A
N143       Cu149   2.091       .  S
C144        C145   1.392       .  A
C144        H147   1.081       .  S
C145        C146   1.389       .  A
C146        H148   1.081       .  S
Cu149       N152   2.091   1_565  S
Cu150       N160   2.078       .  S
Cu151       N153   2.067       .  S
Cu151       N159   2.067       .  S
N152        N153   1.321       .  A
N152        C156   1.345       .  A
N153        C154   1.346       .  A
C154        C155   1.385       .  A
C154        H157   1.082       .  S
C155        C156   1.391       .  A
C156        H158   1.082       .  S
N159        N160   1.322   1_545  A
N159        C163   1.344       .  A
N160        C161   1.345       .  A
C161        C162   1.384       .  A
C161        H164   1.082       .  S
C162        C163   1.381   1_565  A
C162        C261   1.469       .  S
C163        H165   1.082       .  S
C166        C167   1.409       .  A
C166        C171   1.408       .  A
C167        C168   1.406       .  A
C167        H172   1.081       .  S
C168        C169   1.400       .  A
C168        C188   1.487       .  S
C169        C170   1.407       .  A
C169        H173   1.080       .  S
C170        C171   1.409       .  A
C171        H174   1.079       .  S
N175        N176   1.321       .  A
N175        C179   1.345       .  A
N175       Cu183   2.078       .  S
N176        C177   1.346       .  A
N176       Cu182   2.089       .  S
C177        C178   1.392       .  A
C177        H180   1.081       .  S
C178        C179   1.389       .  A
C179        H181   1.081       .  S
Cu182       N185   2.089   1_565  S
Cu183       N193   2.078       .  S
Cu184       N186   2.066       .  S
Cu184       N192   2.066       .  S
N185        N186   1.321       .  A
N185        C189   1.345       .  A
N186        C187   1.345       .  A
C187        C188   1.385       .  A
C187        H190   1.081       .  S
C188        C189   1.391       .  A
C189        H191   1.082       .  S
N192        N193   1.322   1_545  A
N192        C196   1.344       .  A
N193        C194   1.345       .  A
C194        C195   1.384       .  A
C194        H197   1.082       .  S
C195        C196   1.381   1_565  A
C195        C228   1.469       .  S
C196        H198   1.082       .  S
C199        C200   1.406       .  A
C199        C204   1.407       .  A
C200        C201   1.404       .  A
C200        H205   1.080       .  S
C201        C202   1.400       .  A
C201        C221   1.484       .  S
C202        C203   1.408       .  A
C202        H206   1.080       .  S
C203        C204   1.410       .  A
C203        C236   1.501       .  S
C204        H207   1.078       .  S
N208        N209   1.321       .  A
N208        C212   1.345       .  A
N208       Cu216   2.076       .  S
N209        C210   1.345       .  A
N209       Cu215   2.080   1_545  S
C210        C211   1.390       .  A
C210        H213   1.081       .  S
C211        C212   1.389       .  A
C212        H214   1.080       .  S
Cu215       N218   2.080       .  S
Cu216       N226   2.076       .  S
Cu217       N219   2.064       .  S
Cu217       N225   2.064       .  S
N218        N219   1.321       .  A
N218        C222   1.345       .  A
N219        C220   1.343       .  A
C220        C221   1.385       .  A
C220        H223   1.082       .  S
C221        C222   1.389       .  A
C222        H224   1.081       .  S
N225        N226   1.322   1_565  A
N225        C229   1.344   1_554  A
N226        C227   1.345   1_554  A
C227        C228   1.384   1_545  A
C227        H230   1.082       .  S
C228        C229   1.381       .  A
C229        H231   1.082       .  S
C232        C233   1.405       .  A
C232        C237   1.407       .  A
C233        C234   1.403       .  A
C233        H238   1.081       .  S
C234        C235   1.400       .  A
C234        C254   1.485       .  S
C235        C236   1.408       .  A
C235        H239   1.079       .  S
C236        C237   1.410       .  A
C237        H240   1.077       .  S
N241        N242   1.321       .  A
N241        C245   1.344       .  A
N241       Cu249   2.077       .  S
N242        C243   1.345       .  A
N242       Cu248   2.079   1_545  S
C243        C244   1.390       .  A
C243        H246   1.081       .  S
C244        C245   1.389       .  A
C245        H247   1.080       .  S
Cu248       N251   2.079       .  S
Cu249       N259   2.077       .  S
Cu250       N252   2.065       .  S
Cu250       N258   2.065       .  S
N251        N252   1.321       .  A
N251        C255   1.344       .  A
N252        C253   1.344       .  A
C253        C254   1.385       .  A
C253        H256   1.082       .  S
C254        C255   1.389       .  A
C255        H257   1.082       .  S
N258        N259   1.322   1_565  A
N258        C262   1.344       .  A
N259        C260   1.345       .  A
C260        C261   1.384   1_545  A
C260        H263   1.082       .  S
C261        C262   1.381       .  A
C262        H264   1.081       .  S
C265        C266   1.407       .  A
C265        C270   1.406       .  A
C265        C475   1.490       .  S
C266        C267   1.409       .  A
C266        H271   1.078       .  S
C267        C268   1.408       .  A
C268        C269   1.400       .  A
C268        H272   1.080       .  S
C269        C270   1.404       .  A
C269        C287   1.484       .  S
C270        H273   1.080       .  S
N274        N275   1.321       .  A
N274        C278   1.344       .  A
N274       Cu282   2.077       .  S
N275        C276   1.345       .  A
N275       Cu281   2.080       .  S
C276        C277   1.390       .  A
C276        H279   1.082       .  S
C277        C278   1.389       .  A
C277        C463   1.490       .  S
C278        H280   1.080       .  S
Cu281       N284   2.081       .  S
Cu282       N292   2.076       .  S
Cu283       N285   2.064       .  S
Cu283       N291   2.064       .  S
N284        N285   1.321       .  A
N284        C288   1.345       .  A
N285        C286   1.343       .  A
C286        C287   1.385       .  A
C286        H289   1.082       .  S
C287        C288   1.389       .  A
C288        H290   1.081       .  S
N291        N292   1.322       .  A
N291        C295   1.344   1_554  A
N292        C293   1.345   1_554  A
C293        C294   1.384       .  A
C293        H296   1.082       .  S
C294        C295   1.381       .  A
C295        H297   1.082       .  S
C298        C299   1.405       .  A
C298        C303   1.407       .  A
C298        C508   1.490       .  S
C299        C300   1.403       .  A
C299        H304   1.081       .  S
C300        C301   1.400   1_655  A
C300        C320   1.485       .  S
C301        C302   1.408   1_455  A
C301        H305   1.079       .  S
C302        C303   1.410       .  A
C303        H306   1.077       .  S
N307        N308   1.321       .  A
N307        C311   1.344       .  A
N307       Cu315   2.077       .  S
N308        C309   1.345       .  A
N308       Cu314   2.079       .  S
C309        C310   1.390       .  A
C309        H312   1.081       .  S
C310        C311   1.389       .  A
C310        C496   1.490       .  S
C311        H313   1.080       .  S
Cu314       N317   2.079       .  S
Cu315       N325   2.077       .  S
Cu316       N318   2.065       .  S
Cu316       N324   2.065       .  S
N317        N318   1.321       .  A
N317        C321   1.344       .  A
N318        C319   1.343       .  A
C319        C320   1.385       .  A
C319        H322   1.081       .  S
C320        C321   1.389       .  A
C321        H323   1.081       .  S
N324        N325   1.322       .  A
N324        C328   1.344       .  A
N325        C326   1.345       .  A
C326        C327   1.384       .  A
C326        H329   1.082       .  S
C327        C328   1.381       .  A
C328        H330   1.082       .  S
C331        C332   1.408       .  A
C331        C336   1.410       .  A
C331        C409   1.494       .  S
C332        C333   1.409       .  A
C332        H337   1.079       .  S
C333        C334   1.406       .  A
C334        C335   1.400       .  A
C334        H338   1.081       .  S
C335        C336   1.407       .  A
C335        C353   1.487       .  S
C336        H339   1.080       .  S
N340        N341   1.321       .  A
N340        C344   1.346       .  A
N340       Cu348   2.078       .  S
N341        C342   1.346       .  A
N341       Cu347   2.090       .  S
C342        C343   1.392       .  A
C342        H345   1.082       .  S
C343        C344   1.389       .  A
C343        C397   1.494       .  S
C344        H346   1.081       .  S
Cu347       N350   2.091       .  S
Cu348       N358   2.078       .  S
Cu349       N351   2.067       .  S
Cu349       N357   2.067       .  S
N350        N351   1.321       .  A
N350        C354   1.345       .  A
N351        C352   1.346       .  A
C352        C353   1.385       .  A
C352        H355   1.082       .  S
C353        C354   1.391       .  A
C354        H356   1.082       .  S
N357        N358   1.322       .  A
N357        C361   1.344       .  A
N358        C359   1.345       .  A
C359        C360   1.384       .  A
C359        H362   1.081       .  S
C360        C361   1.381       .  A
C361        H363   1.082       .  S
C364        C365   1.409       .  A
C364        C369   1.408       .  A
C364        C442   1.494       .  S
C365        C366   1.406       .  A
C365        H370   1.080       .  S
C366        C367   1.400   1_655  A
C366        C386   1.487   1_655  S
C367        C368   1.407   1_455  A
C367        H371   1.081       .  S
C368        C369   1.409       .  A
C369        H372   1.079       .  S
N373        N374   1.321       .  A
N373        C377   1.345       .  A
N373       Cu381   2.078       .  S
N374        C375   1.346       .  A
N374       Cu380   2.089       .  S
C375        C376   1.392       .  A
C375        H378   1.081       .  S
C376        C377   1.389       .  A
C376        C430   1.494       .  S
C377        H379   1.081       .  S
Cu380       N383   2.089   1_655  S
Cu381       N391   2.078   1_655  S
Cu382       N384   2.066       .  S
Cu382       N390   2.066       .  S
N383        N384   1.321       .  A
N383        C387   1.345   1_455  A
N384        C385   1.345       .  A
C385        C386   1.385       .  A
C385        H388   1.081       .  S
C386        C387   1.391   1_455  A
C387        H389   1.082       .  S
N390        N391   1.322       .  A
N390        C394   1.344       .  A
N391        C392   1.345       .  A
C392        C393   1.384       .  A
C392        H395   1.081   1_455  S
C393        C394   1.381       .  A
C394        H396   1.082       .  S
C397        C398   1.408       .  A
C397        C402   1.410       .  A
C398        C399   1.409       .  A
C398        H403   1.079       .  S
C399        C400   1.406       .  A
C399        C434   1.498       .  S
C400        C401   1.400       .  A
C400        H404   1.080       .  S
C401        C402   1.407       .  A
C401        C419   1.487       .  S
C402        H405   1.081       .  S
N406        N407   1.321       .  A
N406        C410   1.346       .  A
N406       Cu414   2.078       .  S
N407        C408   1.346       .  A
N407       Cu413   2.091       .  S
C408        C409   1.392       .  A
C408        H411   1.081       .  S
C409        C410   1.389       .  A
C410        H412   1.081       .  S
Cu413       N416   2.091   1_565  S
Cu414       N424   2.078       .  S
Cu415       N417   2.067       .  S
Cu415       N423   2.067       .  S
N416        N417   1.321       .  A
N416        C420   1.345       .  A
N417        C418   1.346       .  A
C418        C419   1.385       .  A
C418        H421   1.082       .  S
C419        C420   1.391       .  A
C420        H422   1.082       .  S
N423        N424   1.322   1_545  A
N423        C427   1.344       .  A
N424        C425   1.345       .  A
C425        C426   1.384       .  A
C425        H428   1.082       .  S
C426        C427   1.381   1_565  A
C426        C525   1.469       .  S
C427        H429   1.082       .  S
C430        C431   1.409       .  A
C430        C435   1.408       .  A
C431        C432   1.406       .  A
C431        H436   1.081       .  S
C432        C433   1.400       .  A
C432        C452   1.487       .  S
C433        C434   1.407       .  A
C433        H437   1.080       .  S
C434        C435   1.409       .  A
C435        H438   1.079       .  S
N439        N440   1.321       .  A
N439        C443   1.345       .  A
N439       Cu447   2.078       .  S
N440        C441   1.346       .  A
N440       Cu446   2.089       .  S
C441        C442   1.392       .  A
C441        H444   1.081       .  S
C442        C443   1.389       .  A
C443        H445   1.081       .  S
Cu446       N449   2.089   1_565  S
Cu447       N457   2.078       .  S
Cu448       N450   2.066       .  S
Cu448       N456   2.066       .  S
N449        N450   1.321       .  A
N449        C453   1.345       .  A
N450        C451   1.345       .  A
C451        C452   1.385       .  A
C451        H454   1.081       .  S
C452        C453   1.391       .  A
C453        H455   1.082       .  S
N456        N457   1.322   1_545  A
N456        C460   1.344       .  A
N457        C458   1.345       .  A
C458        C459   1.384       .  A
C458        H461   1.082       .  S
C459        C460   1.381   1_565  A
C459        C492   1.469       .  S
C460        H462   1.082       .  S
C463        C464   1.406       .  A
C463        C468   1.407       .  A
C464        C465   1.404       .  A
C464        H469   1.079       .  S
C465        C466   1.400       .  A
C465        C485   1.484       .  S
C466        C467   1.408       .  A
C466        H470   1.080       .  S
C467        C468   1.410       .  A
C467        C500   1.501       .  S
C468        H471   1.078       .  S
N472        N473   1.321       .  A
N472        C476   1.345       .  A
N472       Cu480   2.076       .  S
N473        C474   1.345       .  A
N473       Cu479   2.080   1_545  S
C474        C475   1.390       .  A
C474        H477   1.081       .  S
C475        C476   1.389       .  A
C476        H478   1.080       .  S
Cu479       N482   2.080       .  S
Cu480       N490   2.076       .  S
Cu481       N483   2.064       .  S
Cu481       N489   2.064       .  S
N482        N483   1.321       .  A
N482        C486   1.345       .  A
N483        C484   1.343       .  A
C484        C485   1.385       .  A
C484        H487   1.082       .  S
C485        C486   1.389       .  A
C486        H488   1.081       .  S
N489        N490   1.322   1_565  A
N489        C493   1.344   1_554  A
N490        C491   1.345   1_554  A
C491        C492   1.384   1_545  A
C491        H494   1.082       .  S
C492        C493   1.381       .  A
C493        H495   1.082       .  S
C496        C497   1.405       .  A
C496        C501   1.407       .  A
C497        C498   1.403       .  A
C497        H502   1.081       .  S
C498        C499   1.400       .  A
C498        C518   1.485       .  S
C499        C500   1.408       .  A
C499        H503   1.079       .  S
C500        C501   1.410       .  A
C501        H504   1.077       .  S
N505        N506   1.321       .  A
N505        C509   1.344       .  A
N505       Cu513   2.077       .  S
N506        C507   1.345       .  A
N506       Cu512   2.079   1_545  S
C507        C508   1.390       .  A
C507        H510   1.081       .  S
C508        C509   1.389       .  A
C509        H511   1.081       .  S
Cu512       N515   2.079       .  S
Cu513       N523   2.077       .  S
Cu514       N516   2.065       .  S
Cu514       N522   2.065       .  S
N515        N516   1.321       .  A
N515        C519   1.344       .  A
N516        C517   1.344       .  A
C517        C518   1.385       .  A
C517        H520   1.082       .  S
C518        C519   1.389       .  A
C519        H521   1.082       .  S
N522        N523   1.322   1_565  A
N522        C526   1.344       .  A
N523        C524   1.345       .  A
C524        C525   1.384   1_545  A
C524        H527   1.082       .  S
C525        C526   1.381       .  A
C526        H528   1.081       .  S
