geometry optimzed in LAMMPS
_audit_creation_date              2020-11-30 
_audit_creation_method            'lammps2cif' 
_symmetry_space_group_name_H-M    'P1' 
_symmetry_Int_Tables_number       1 
_symmetry_cell_setting            triclinic 
loop_ 
_symmetry_equiv_pos_as_xyz 
  x,y,z 
_cell_length_a                    42.59933754 
_cell_length_b                    27.028412820725006 
_cell_length_c                    42.328051229869956 
_cell_angle_alpha                 90.0547191321837 
_cell_angle_beta                  89.96719292504753 
_cell_angle_gamma                 89.98090683524673 
loop_ 
_atom_site_label 
_atom_site_type_symbol 
_atom_site_fract_x 
_atom_site_fract_y 
_atom_site_fract_z 
_atom_site_charge 
C1          C  0.05818162  0.89379916  0.07488057     0.42100
N2          N  0.04957387  0.95286779  0.04210024     0.01000
C3          C  0.41619571  0.09865397  0.03114456    -0.06900
H4          H  0.39764541  0.90768479  0.01659870     0.06500
C5          C  0.46498735  0.91363813  0.41946566    -0.07200
Co6        Co  0.49088577  0.00857722  0.05746971     0.74200
N7          N  0.43686736  0.95404510  0.02908272    -0.26400
Co8        Co  0.44001924  0.00705960  0.49357565     0.74100
C9          C  0.43524716  0.89064258  0.42844949     0.42200
N10         N  0.03789213  0.95072493  0.44739194     0.00600
N11         N  0.44422154  0.95222722  0.45911787     0.00700
N12         N  0.45049498  0.09978012  0.07198660    -0.47300
H13         H  0.01272962  0.91094238  0.10243391     0.06500
N14         N  0.45604168  0.95477830  0.05355328     0.01000
N15         N  0.44478796  0.06040456  0.45840676     0.00700
C16         C  0.43630513  0.12051562  0.42660200     0.42300
N17         N  0.05704706  0.95077974  0.47189218    -0.25900
C18         C  0.02963277  0.09993763  0.08001656    -0.06800
N19         N  0.06992438  0.91763501  0.04942400    -0.47000
N20         N  0.42476182  0.09653203  0.45202498    -0.47200
C21         C  0.05943363  0.12273801  0.07097316     0.42100
N22         N  0.45659708  0.06305514  0.05215141     0.01000
N23         N  0.05784051  0.05846498  0.47067398    -0.25900
N24         N  0.02533089  0.95412203  0.06150513    -0.26400
N25         N  0.03828826  0.05872569  0.44649311     0.00600
H26         H  0.09815945  0.10293269  0.48251657     0.06500
H27         H  0.48120523  0.10347835  0.39815550     0.06500
N28         N  0.43695963  0.06171902  0.02806950    -0.26400
N29         N  0.46847423  0.95141242  0.43972460    -0.26100
N30         N  0.05033593  0.06089207  0.04054704     0.01000
C31         C  0.42522317  0.89374083  0.06267777     0.42400
C32         C  0.07756499  0.91349895  0.46864482    -0.07300
N33         N  0.46879353  0.05920700  0.43869233    -0.26000
H34         H  0.48087026  0.90450804  0.40040999     0.06500
N35         N  0.44980082  0.91949088  0.07430198    -0.47300
H36         H  0.09669693  0.90543714  0.48460091     0.06500
C37         C  0.07016411  0.11817082  0.43689872     0.42200
C38         C  0.02856545  0.91799961  0.08298934    -0.06800
Co39       Co  0.05438171  0.00566027  0.00639296     0.73800
N40         N  0.04443714  0.91517911  0.42687382    -0.47000
C41         C  0.42537709  0.12396074  0.06015978     0.42500
N42         N  0.07095706  0.09636431  0.04645575    -0.47000
Co43       Co  0.00346553  0.00501888  0.44237975     0.73900
C44         C  0.46541969  0.09571638  0.41754399    -0.07300
C45         C  0.41652112  0.91666444  0.03266662    -0.06900
N46         N  0.02605707  0.06202355  0.05990256    -0.26400
N47         N  0.42366640  0.91673650  0.45305290    -0.47200
H48         H  0.39699728  0.10639771  0.01519703     0.06500
C49         C  0.07890482  0.09474533  0.46672119    -0.07300
Cl50       Cl  0.99719627  0.00655283  0.99995666    -0.50300
C51         C  0.06909778  0.88991567  0.43874605     0.42200
H52         H  0.01370830  0.10930494  0.09899848     0.06500
N53         N  0.04485851  0.09379041  0.42567836    -0.47000
C54         C  0.30974402  0.62305664  0.17883538     0.42100
N55         N  0.30027190  0.56220480  0.20985349     0.01000
C56         C  0.16754855  0.41529295  0.21638204    -0.06900
H57         H  0.14706553  0.60522017  0.23635266     0.06500
C58         C  0.21478809  0.59424889  0.33277302    -0.07200
Co59       Co  0.24121822  0.50904407  0.19262911     0.74200
N60         N  0.18693876  0.56080583  0.22271039    -0.26400
Co61       Co  0.19031363  0.50498739  0.25652227     0.74100
C62         C  0.18490277  0.61730748  0.32431000     0.42200
N63         N  0.28805989  0.55854178  0.30423706     0.00600
N64         N  0.19414857  0.55737344  0.29244370     0.00700
N65         N  0.20049004  0.42007997  0.17450441    -0.47300
H66         H  0.26409116  0.60957875  0.15084966     0.06500
N67         N  0.20626499  0.56246749  0.19835102     0.01000
N68         N  0.19514378  0.44937195  0.29023169     0.00700
C69         C  0.18649617  0.38797867  0.32098910     0.42300
N70         N  0.30730351  0.55961172  0.27979738    -0.25900
C71         C  0.28004810  0.41949064  0.16704594    -0.06800
N72         N  0.32120069  0.59701011  0.20346176    -0.47000
N73         N  0.17505562  0.41305533  0.29594655    -0.47200
C74         C  0.30949902  0.39527412  0.17575020     0.42100
N75         N  0.20681560  0.45450678  0.19586930     0.01000
N76         N  0.30785362  0.45198350  0.27820194    -0.25900
N77         N  0.27596320  0.56325096  0.19055189    -0.26400
N78         N  0.28837853  0.45058741  0.30243603     0.00600
H79         H  0.34807182  0.40796765  0.26525147     0.06500
H80         H  0.23123394  0.40385602  0.34990471     0.06500
N81         N  0.18773328  0.45277415  0.22040687    -0.26400
N82         N  0.21843930  0.55747352  0.31177330    -0.26100
N83         N  0.30026910  0.45434403  0.20828721     0.01000
C84         C  0.17473537  0.62332782  0.19097492     0.42400
C85         C  0.32785129  0.59657551  0.28380797    -0.07300
N86         N  0.21901410  0.44971853  0.31008825    -0.26000
H87         H  0.23063417  0.60270507  0.35197393     0.06500
N88         N  0.19961954  0.59901796  0.17864593    -0.47300
H89         H  0.34698880  0.60540921  0.26800772     0.06500
C90         C  0.32010543  0.39035869  0.31057120     0.42200
C91         C  0.27970788  0.60073968  0.17016160    -0.06800
Co92       Co  0.30457163  0.50703251  0.24395007     0.73800
N93         N  0.29460976  0.59299858  0.32550327    -0.47000
C94         C  0.17610213  0.39367782  0.18594018     0.42500
N95         N  0.32070793  0.41899951  0.20145039    -0.47000
Co96       Co  0.25357484  0.50410808  0.30783116     0.73900
C97         C  0.21556784  0.41232941  0.33055612    -0.07300
C98         C  0.16621754  0.59799851  0.22022801    -0.06900
N99         N  0.27631338  0.45549525  0.18853502    -0.26400
N100        N  0.17343132  0.59231176  0.29923873    -0.47200
H101        H  0.14861614  0.40571659  0.23226534     0.06500
C102        C  0.32884048  0.41533872  0.28125317    -0.07300
Cl103      Cl  0.24742082  0.50632281  0.25023146    -0.50300
C104        C  0.31934026  0.61867422  0.31412564     0.42200
H105        H  0.26433914  0.41196130  0.14756904     0.06500
N106        N  0.29491154  0.41436425  0.32242175    -0.47000
C107        C  0.07835741  0.22737655  0.12742770    -0.11200
C108        C  0.10900437  0.24035992  0.11817529     0.05900
C109        C  0.12270426  0.21517537  0.09252585    -0.10000
C110        C  0.10636186  0.17755419  0.07689631    -0.11600
C111        C  0.07605962  0.16399572  0.08668339    -0.01400
C112        C  0.06214070  0.18952990  0.11195291    -0.10500
C113        C  0.12668458  0.27939708  0.13554920     0.06000
H114        H  0.14637480  0.22362538  0.08496444     0.07900
H115        H  0.11769270  0.15849200  0.05748081     0.11300
H116        H  0.03870140  0.18038052  0.11987235     0.11600
H117        H  0.06673337  0.24667485  0.14655753     0.07900
C118        C  0.14740295  0.31134441  0.11958576    -0.11200
C119        C  0.16392480  0.34788887  0.13606712    -0.10500
C120        C  0.15972776  0.35376224  0.16875018    -0.01400
C121        C  0.13922867  0.32185928  0.18477177    -0.11600
C122        C  0.12306163  0.28490537  0.16841770    -0.10000
H123        H  0.15049060  0.30872747  0.09425778     0.07900
H124        H  0.17949125  0.37220320  0.12312726     0.11600
H125        H  0.13585281  0.32510785  0.21004183     0.11300
H126        H  0.10796063  0.26028719  0.18166615     0.07900
C127        C  0.13225971  0.27990799  0.33661827    -0.11200
C128        C  0.13730695  0.27124771  0.36902998     0.05900
C129        C  0.15895221  0.30133400  0.38522210    -0.10000
C130        C  0.17531863  0.33861012  0.36944845    -0.11600
C131        C  0.16997321  0.34742021  0.33726817    -0.01400
C132        C  0.14822086  0.31795320  0.32098700    -0.10500
C133        C  0.12006145  0.23138258  0.38606329     0.06000
H134        H  0.16293903  0.29673203  0.41030264     0.07900
H135        H  0.19161348  0.36130460  0.38267798     0.11300
H136        H  0.14382793  0.32399648  0.29608190     0.11600
H137        H  0.11621049  0.25706901  0.32321922     0.07900
C138        C  0.08883706  0.21956212  0.37819147    -0.11200
C139        C  0.07264781  0.18268469  0.39468540    -0.10500
C140        C  0.08715155  0.15735880  0.41966320    -0.01400
C141        C  0.11824462  0.16902504  0.42757917    -0.11600
C142        C  0.13459511  0.20524583  0.41080542    -0.10000
H143        H  0.07666238  0.23934736  0.35967030     0.07900
H144        H  0.04862750  0.17440610  0.38816117     0.11600
H145        H  0.13022241  0.14957673  0.44638553     0.11300
H146        H  0.15881497  0.21233944  0.41708412     0.07900
C147        C  0.14736850  0.71119891  0.12726173    -0.11200
C148        C  0.12459225  0.73970124  0.14307383     0.05900
C149        C  0.11870200  0.72976741  0.17519567    -0.10000
C150        C  0.13504573  0.69213714  0.19093578    -0.11600
C151        C  0.15780560  0.66397572  0.17496655    -0.01400
C152        C  0.16392467  0.67415304  0.14307264    -0.10500
C153        C  0.10732419  0.77958151  0.12597908     0.06000
H154        H  0.10174343  0.75141280  0.18830681     0.07900
H155        H  0.13000389  0.68539181  0.21560532     0.11300
H156        H  0.18116947  0.65279013  0.13008705     0.11600
H157        H  0.15213807  0.71691415  0.10240698     0.07900
C158        C  0.12252464  0.80763117  0.10252298    -0.11200
C159        C  0.10637775  0.84416405  0.08579913    -0.10500
C160        C  0.07474117  0.85423533  0.09238789    -0.01400
C161        C  0.05945967  0.82673088  0.11598154    -0.11600
C162        C  0.07553372  0.78964654  0.13251227    -0.10000
H163        H  0.14712068  0.80182725  0.09725622     0.07900
H164        H  0.11885450  0.86504242  0.06792898     0.11600
H165        H  0.03501451  0.83341427  0.12145275     0.11300
H166        H  0.06289088  0.76837308  0.15002098     0.07900
C167        C  0.36097014  0.21037200  0.08712478    -0.11200
C168        C  0.37707126  0.24204684  0.10798280     0.05900
C169        C  0.40953252  0.23481323  0.11238091    -0.10000
C170        C  0.42524030  0.19636914  0.09684397    -0.11600
C171        C  0.40900511  0.16509328  0.07606271    -0.01400
C172        C  0.37682850  0.17270897  0.07110190    -0.10500
C173        C  0.35991418  0.28180469  0.12533174     0.06000
H174        H  0.42290364  0.25895626  0.12770933     0.07900
H175        H  0.45015767  0.19134868  0.10084229     0.11300
H176        H  0.36368172  0.14867623  0.05548264     0.11600
H177        H  0.33589895  0.21389071  0.08360428     0.07900
C178        C  0.33421172  0.30611367  0.11133618    -0.09000
C179        C  0.31752064  0.34234882  0.12786765    -0.10500
C180        C  0.32643213  0.35580572  0.15859416    -0.01400
C181        C  0.35222976  0.33208163  0.17258183    -0.11600
C182        C  0.36866700  0.29528181  0.15623745    -0.10000
H183        H  0.32713746  0.29766680  0.08737021     0.07900
H184        H  0.29799521  0.36040335  0.11628322     0.11600
H185        H  0.35953863  0.34165045  0.19631964     0.11300
H186        H  0.38788359  0.27685498  0.16809788     0.07900
C187        C  0.37144040  0.80051469  0.40495585    -0.11200
C188        C  0.38663698  0.77151538  0.38196801     0.05900
C189        C  0.41835786  0.78128989  0.37507675    -0.10000
C190        C  0.43425066  0.81979455  0.39026012    -0.11600
C191        C  0.41887369  0.84905553  0.41289110    -0.01400
C192        C  0.38743426  0.83870989  0.42033315    -0.10500
C193        C  0.36929207  0.73212935  0.36467932     0.06000
H194        H  0.43097809  0.75906924  0.35798745     0.07900
H195        H  0.45859452  0.82645905  0.38431102     0.11300
H196        H  0.37498012  0.86076012  0.43766604     0.11600
H197        H  0.34693980  0.79451907  0.41055529     0.07900
C198        C  0.34665521  0.70290529  0.38010066    -0.11200
C199        C  0.33010834  0.66647025  0.36356063    -0.10500
C200        C  0.33608256  0.65815948  0.33136659    -0.01400
C201        C  0.35860430  0.68729040  0.31592575    -0.11600
C202        C  0.37492908  0.72397074  0.33235131    -0.10000
H203        H  0.34198670  0.70773676  0.40505002     0.07900
H204        H  0.31296546  0.64434676  0.37607731     0.11600
H205        H  0.36347493  0.68213322  0.29104274     0.11300
H206        H  0.39166782  0.74647325  0.31954686     0.07900
C207        C  0.40803010  0.20421177  0.36106581    -0.11200
C208        C  0.38704919  0.23566304  0.37712484     0.05900
C209        C  0.38285298  0.22907555  0.40986149    -0.10000
C210        C  0.39888187  0.19160435  0.42594490    -0.11600
C211        C  0.41990100  0.16064809  0.40978837    -0.01400
C212        C  0.42450346  0.16747064  0.37728593    -0.10500
C213        C  0.36966576  0.27501525  0.35976590     0.06000
H214        H  0.36739489  0.25309089  0.42315777     0.07900
H215        H  0.39509620  0.18712903  0.45108945     0.11300
H216        H  0.44026614  0.14360445  0.36420842     0.11600
H217        H  0.41140937  0.20738181  0.33579638     0.07900
C218        C  0.38380000  0.30012009  0.33434759    -0.11200
C219        C  0.36752404  0.33693238  0.31797604    -0.10500
C220        C  0.33690367  0.35002152  0.32691410    -0.01400
C221        C  0.32268657  0.32514846  0.35224671    -0.11600
C222        C  0.33879352  0.28784162  0.36837171    -0.10000
H223        H  0.40771314  0.29201907  0.32739256     0.07900
H224        H  0.37924018  0.35580648  0.29876972     0.11600
H225        H  0.29900839  0.33436555  0.35950523     0.11300
H226        H  0.32688694  0.26873425  0.38737145     0.07900
C227        C  0.09508231  0.80232707  0.37400219    -0.11200
C228        C  0.11905697  0.77529951  0.38898536     0.05900
C229        C  0.12613456  0.78607582  0.42072024    -0.10000
C230        C  0.10982642  0.82309234  0.43696807    -0.11600
C231        C  0.08593061  0.84996033  0.42193112    -0.01400
C232        C  0.07860147  0.83903895  0.39035121    -0.10500
C233        C  0.13627899  0.73557244  0.37178944     0.06000
H234        H  0.14398099  0.76538094  0.43322219     0.07900
H235        H  0.11583856  0.83033876  0.46137149     0.11300
H236        H  0.06039423  0.85934787  0.37810390     0.11600
H237        H  0.08929122  0.79561039  0.34947987     0.07900
C238        C  0.12055754  0.70493797  0.35006763    -0.11200
C239        C  0.13652713  0.66697908  0.33441213    -0.10500
C240        C  0.16846623  0.65834712  0.34038886    -0.01400
C241        C  0.18432472  0.68897368  0.36188045    -0.11600
C242        C  0.16845415  0.72737370  0.37727448    -0.10000
H243        H  0.09571994  0.70957029  0.34560464     0.07900
H244        H  0.12369948  0.64378643  0.31801467     0.11600
H245        H  0.20904559  0.68356658  0.36664151     0.11300
H246        H  0.18146920  0.75082256  0.39334591     0.07900
C247        C  0.36890550  0.78929612  0.08103370    -0.11200
C248        C  0.37732420  0.77692735  0.11217568     0.05900
C249        C  0.40229322  0.80259686  0.12649411    -0.10000
C250        C  0.41814978  0.84000074  0.11019589    -0.11600
C251        C  0.40924858  0.85283753  0.07933418    -0.01400
C252        C  0.38460692  0.82690781  0.06485070    -0.10500
C253        C  0.35994026  0.73773358  0.12963820     0.06000
H254        H  0.40918567  0.79456515  0.15055429     0.07900
H255        H  0.43705472  0.85942131  0.12196924     0.11300
H256        H  0.37739454  0.83551965  0.04097329     0.11600
H257        H  0.35028432  0.76960110  0.06898130     0.07900
C258        C  0.32737517  0.73183761  0.12546490    -0.11200
C259        C  0.31106405  0.69461066  0.14143213    -0.10500
C260        C  0.32683988  0.66287337  0.16226901    -0.01400
C261        C  0.35924239  0.66902332  0.16687046    -0.11600
C262        C  0.37566675  0.70582691  0.15058022    -0.10000
H263        H  0.31434872  0.75635747  0.11007845     0.07900
H264        H  0.28602007  0.69106851  0.13770361     0.11600
H265        H  0.37201509  0.64482293  0.18268364     0.11300
H266        H  0.40076858  0.70872832  0.15403860     0.07900
C267        C  0.05818155  0.89379915  0.57488069     0.42100
N268        N  0.04957380  0.95286782  0.54210033     0.01000
C269        C  0.41619585  0.09865382  0.53114473    -0.06900
H270        H  0.39764476  0.90768391  0.51659780     0.06500
C271        C  0.46498738  0.91363802  0.91946556    -0.07200
Co272      Co  0.49088582  0.00857719  0.55746979     0.74200
N273        N  0.43686724  0.95404508  0.52908259    -0.26400
Co274      Co  0.44001926  0.00705956  0.99357562     0.74100
C275        C  0.43524718  0.89064258  0.92844945     0.42200
N276        N  0.03789219  0.95072499  0.94739197     0.00600
N277        N  0.44422181  0.95222725  0.95911783     0.00700
N278        N  0.45049496  0.09977999  0.57198656    -0.47300
H279        H  0.01272828  0.91094189  0.60243575     0.06500
N280        N  0.45604173  0.95477810  0.55355339     0.01000
N281        N  0.44478787  0.06040464  0.95840670     0.00700
C282        C  0.43630510  0.12051565  0.92660189     0.42300
N283        N  0.05704704  0.95077988  0.97189200    -0.25900
C284        C  0.02963251  0.09993785  0.58001681    -0.06800
N285        N  0.06992425  0.91763503  0.54942403    -0.47000
N286        N  0.42476184  0.09653190  0.95202488    -0.47200
C287        C  0.05943372  0.12273792  0.57097313     0.42100
N288        N  0.45659720  0.06305535  0.55215156     0.01000
N289        N  0.05784017  0.05846480  0.97067373    -0.25900
N290        N  0.02533078  0.95412194  0.56150541    -0.26400
N291        N  0.03828815  0.05872560  0.94649307     0.00600
H292        H  0.09815642  0.10293181  0.98251437     0.06500
H293        H  0.48120571  0.10347927  0.89815511     0.06500
N294        N  0.43695954  0.06171910  0.52806939    -0.26400
N295        N  0.46847415  0.95141244  0.93972455    -0.26100
N296        N  0.05033588  0.06089208  0.54054707     0.01000
C297        C  0.42522317  0.89374064  0.56267767     0.42400
C298        C  0.07756501  0.91349884  0.96864482    -0.07300
N299        N  0.46879361  0.05920708  0.93869220    -0.26000
H300        H  0.48087020  0.90450751  0.90041017     0.06500
N301        N  0.44980081  0.91949104  0.57430189    -0.47300
H302        H  0.09669668  0.90543720  0.98460060     0.06500
C303        C  0.07016381  0.11817095  0.93689852     0.42200
C304        C  0.02856559  0.91799970  0.58298920    -0.06800
Co305      Co  0.05438174  0.00566022  0.50639302     0.73800
N306        N  0.04443722  0.91517910  0.92687371    -0.47000
C307        C  0.42537706  0.12396080  0.56015975     0.42500
N308        N  0.07095721  0.09636441  0.54645576    -0.47000
Co309      Co  0.00346549  0.00501889  0.94237970     0.73900
C310        C  0.46541960  0.09571650  0.91754408    -0.07300
C311        C  0.41652122  0.91666451  0.53266675    -0.06900
N312        N  0.02605723  0.06202344  0.55990241    -0.26400
N313        N  0.42366635  0.91673638  0.95305280    -0.47200
H314        H  0.39699634  0.10639806  0.51519617     0.06500
C315        C  0.07890510  0.09474560  0.96672137    -0.07300
Cl316      Cl  0.99719633  0.00655282  0.49995678    -0.50300
C317        C  0.06909790  0.88991575  0.93874598     0.42200
H318        H  0.01370933  0.10930406  0.59899703     0.06500
N319        N  0.04485836  0.09379052  0.92567820    -0.47000
C320        C  0.30974385  0.62305672  0.67883528     0.42100
N321        N  0.30027188  0.56220500  0.70985342     0.01000
C322        C  0.16754853  0.41529295  0.71638203    -0.06900
H323        H  0.14706447  0.60522050  0.73635412     0.06500
C324        C  0.21478813  0.59424877  0.83277297    -0.07200
Co325      Co  0.24121824  0.50904410  0.69262914     0.74200
N326        N  0.18693861  0.56080578  0.72271049    -0.26400
Co327      Co  0.19031367  0.50498734  0.75652223     0.74100
C328        C  0.18490282  0.61730762  0.82430998     0.42200
N329        N  0.28806005  0.55854149  0.80423689     0.00600
N330        N  0.19414845  0.55737357  0.79244357     0.00700
N331        N  0.20049001  0.42007999  0.67450433    -0.47300
H332        H  0.26408992  0.60957918  0.65084786     0.06500
N333        N  0.20626494  0.56246759  0.69835097     0.01000
N334        N  0.19514377  0.44937168  0.79023158     0.00700
C335        C  0.18649614  0.38797863  0.82098909     0.42300
N336        N  0.30730347  0.55961193  0.77979757    -0.25900
C337        C  0.28004803  0.41949064  0.66704600    -0.06800
N338        N  0.32120066  0.59701025  0.70346168    -0.47000
N339        N  0.17505567  0.41305535  0.79594647    -0.47200
C340        C  0.30949901  0.39527421  0.67575021     0.42100
N341        N  0.20681565  0.45450670  0.69586928     0.01000
N342        N  0.30785356  0.45198390  0.77820210    -0.25900
N343        N  0.27596315  0.56325111  0.69055173    -0.26400
N344        N  0.28837836  0.45058732  0.80243623     0.00600
H345        H  0.34807013  0.40796898  0.76525343     0.06500
H346        H  0.23123365  0.40385620  0.84990440     0.06500
N347        N  0.18773334  0.45277419  0.72040681    -0.26400
N348        N  0.21843929  0.55747329  0.81177327    -0.26100
N349        N  0.30026913  0.45434409  0.70828726     0.01000
C350        C  0.17473525  0.62332781  0.69097512     0.42400
C351        C  0.32785150  0.59657580  0.78380806    -0.07300
N352        N  0.21901414  0.44971850  0.81008822    -0.26000
H353        H  0.23063406  0.60270448  0.85197368     0.06500
N354        N  0.19961946  0.59901794  0.67864603    -0.47300
H355        H  0.34698870  0.60540911  0.76800881     0.06500
C356        C  0.32010530  0.39035881  0.81057144     0.42200
C357        C  0.27970802  0.60073952  0.67016170    -0.06800
Co358      Co  0.30457166  0.50703270  0.74395012     0.73800
N359        N  0.29460974  0.59299872  0.82550343    -0.47000
C360        C  0.17610209  0.39367786  0.68594008     0.42500
N361        N  0.32070791  0.41899947  0.70145049    -0.47000
Co362      Co  0.25357479  0.50410802  0.80783118     0.73900
C363        C  0.21556790  0.41232929  0.83055614    -0.07300
C364        C  0.16621773  0.59799832  0.72022803    -0.06900
N365        N  0.27631342  0.45549535  0.68853509    -0.26400
N366        N  0.17343134  0.59231160  0.79923878    -0.47200
H367        H  0.14861644  0.40571688  0.73226508     0.06500
C368        C  0.32884061  0.41533863  0.78125314    -0.07300
Cl369      Cl  0.24742084  0.50632280  0.75023150    -0.50300
C370        C  0.31934019  0.61867405  0.81412582     0.42200
H371        H  0.26433916  0.41196156  0.64756910     0.06500
N372        N  0.29491134  0.41436444  0.82242179    -0.47000
C373        C  0.07835742  0.22737667  0.62742783    -0.11200
C374        C  0.10900441  0.24035978  0.61817507     0.05900
C375        C  0.12270457  0.21517556  0.59252552    -0.10000
C376        C  0.10636190  0.17755438  0.57689621    -0.11600
C377        C  0.07605986  0.16399571  0.58668313    -0.01400
C378        C  0.06214072  0.18952952  0.61195276    -0.10500
C379        C  0.12668450  0.27939703  0.63554916     0.06000
H380        H  0.14637380  0.22362546  0.58496447     0.07900
H381        H  0.11769361  0.15849124  0.55747953     0.11300
H382        H  0.03870279  0.18038094  0.61987190     0.11600
H383        H  0.06673442  0.24667264  0.64655553     0.07900
C384        C  0.14740282  0.31134418  0.61958578    -0.11200
C385        C  0.16392492  0.34788897  0.63606695    -0.10500
C386        C  0.15972771  0.35376206  0.66875013    -0.01400
C387        C  0.13922865  0.32185933  0.68477190    -0.11600
C388        C  0.12306152  0.28490526  0.66841767    -0.10000
H389        H  0.15049076  0.30872722  0.59425786     0.07900
H390        H  0.17949030  0.37220108  0.62312802     0.11600
H391        H  0.13585300  0.32510776  0.71004088     0.11300
H392        H  0.10796068  0.26028754  0.68166604     0.07900
C393        C  0.13225995  0.27990834  0.83661836    -0.11200
C394        C  0.13730682  0.27124747  0.86902970     0.05900
C395        C  0.15895220  0.30133383  0.88522191    -0.10000
C396        C  0.17531850  0.33860984  0.86944835    -0.11600
C397        C  0.16997325  0.34742014  0.83726816    -0.01400
C398        C  0.14822066  0.31795303  0.82098687    -0.10500
C399        C  0.12006148  0.23138262  0.88606310     0.06000
H400        H  0.16293912  0.29673113  0.91030279     0.07900
H401        H  0.19161414  0.36130518  0.88267836     0.11300
H402        H  0.14382789  0.32399672  0.79608195     0.11600
H403        H  0.11620816  0.25706632  0.82321746     0.07900
C404        C  0.08883731  0.21956234  0.87819128    -0.11200
C405        C  0.07264743  0.18268465  0.89468511    -0.10500
C406        C  0.08715159  0.15735916  0.91966305    -0.01400
C407        C  0.11824473  0.16902468  0.92757951    -0.11600
C408        C  0.13459506  0.20524601  0.91080520    -0.10000
H409        H  0.07666226  0.23934719  0.85967013     0.07900
H410        H  0.04863124  0.17440739  0.88816181     0.11600
H411        H  0.13022044  0.14958019  0.94638308     0.11300
H412        H  0.15881459  0.21233865  0.91708410     0.07900
C413        C  0.14736852  0.71119908  0.62726154    -0.11200
C414        C  0.12459226  0.73970120  0.64307396     0.05900
C415        C  0.11870180  0.72976759  0.67519588    -0.10000
C416        C  0.13504584  0.69213700  0.69093594    -0.11600
C417        C  0.15780555  0.66397571  0.67496681    -0.01400
C418        C  0.16392480  0.67415282  0.64307294    -0.10500
C419        C  0.10732428  0.77958171  0.62597892     0.06000
H420        H  0.10174454  0.75141070  0.68830582     0.07900
H421        H  0.13000394  0.68539189  0.71560558     0.11300
H422        H  0.18116855  0.65279132  0.63008796     0.11600
H423        H  0.15213789  0.71691368  0.60240987     0.07900
C424        C  0.12252478  0.80763131  0.60252272    -0.11200
C425        C  0.10637781  0.84416401  0.58579908    -0.10500
C426        C  0.07474139  0.85423543  0.59238765    -0.01400
C427        C  0.05945989  0.82673117  0.61598134    -0.11600
C428        C  0.07553365  0.78964655  0.63251234    -0.10000
H429        H  0.14712073  0.80182710  0.59725604     0.07900
H430        H  0.11885540  0.86504379  0.56792727     0.11600
H431        H  0.03501470  0.83341464  0.62145260     0.11300
H432        H  0.06289175  0.76837522  0.65001982     0.07900
C433        C  0.36097034  0.21037246  0.58712479    -0.11200
C434        C  0.37707171  0.24204711  0.60798298     0.05900
C435        C  0.40953285  0.23481296  0.61238108    -0.10000
C436        C  0.42524027  0.19636924  0.59684416    -0.11600
C437        C  0.40900566  0.16509338  0.57606295    -0.01400
C438        C  0.37682891  0.17270899  0.57110170    -0.10500
C439        C  0.35991392  0.28180484  0.62533152     0.06000
H440        H  0.42290464  0.25895768  0.62771102     0.07900
H441        H  0.45016107  0.19134745  0.60084314     0.11300
H442        H  0.36368320  0.14867898  0.55548416     0.11600
H443        H  0.33590205  0.21389086  0.58360391     0.07900
C444        C  0.33421152  0.30611404  0.61133589    -0.09000
C445        C  0.31752059  0.34234902  0.62786740    -0.10500
C446        C  0.32643180  0.35580580  0.65859373    -0.01400
C447        C  0.35222951  0.33208171  0.67258201    -0.11600
C448        C  0.36866679  0.29528152  0.65623726    -0.10000
H449        H  0.32713725  0.29766693  0.58736928     0.07900
H450        H  0.29799386  0.36040500  0.61628224     0.11600
H451        H  0.35953741  0.34164863  0.69631640     0.11300
H452        H  0.38788192  0.27685626  0.66809731     0.07900
C453        C  0.37144033  0.80051446  0.90495570    -0.11200
C454        C  0.38663694  0.77151497  0.88196785     0.05900
C455        C  0.41835736  0.78128971  0.87507688    -0.10000
C456        C  0.43425106  0.81979436  0.89025989    -0.11600
C457        C  0.41887349  0.84905533  0.91289104    -0.01400
C458        C  0.38743412  0.83871004  0.92033326    -0.10500
C459        C  0.36929178  0.73212889  0.86467956     0.06000
H460        H  0.43097910  0.75906685  0.85798620     0.07900
H461        H  0.45859081  0.82645779  0.88431193     0.11300
H462        H  0.37498091  0.86075858  0.93766442     0.11600
H463        H  0.34693983  0.79451923  0.91055528     0.07900
C464        C  0.34665515  0.70290531  0.88010088    -0.11200
C465        C  0.33010822  0.66647015  0.86356080    -0.10500
C466        C  0.33608256  0.65815938  0.83136663    -0.01400
C467        C  0.35860401  0.68729020  0.81592608    -0.11600
C468        C  0.37492943  0.72397129  0.83235103    -0.10000
H469        H  0.34198689  0.70773652  0.90504965     0.07900
H470        H  0.31296565  0.64434731  0.87607741     0.11600
H471        H  0.36347559  0.68213317  0.79104174     0.11300
H472        H  0.39166457  0.74646863  0.81954960     0.07900
C473        C  0.40803021  0.20421155  0.86106593    -0.11200
C474        C  0.38704928  0.23566302  0.87712458     0.05900
C475        C  0.38285306  0.22907525  0.90986142    -0.10000
C476        C  0.39888196  0.19160422  0.92594473    -0.11600
C477        C  0.41990102  0.16064780  0.90978812    -0.01400
C478        C  0.42450333  0.16747107  0.87728579    -0.10500
C479        C  0.36966571  0.27501544  0.85976592     0.06000
H480        H  0.36739475  0.25309036  0.92315781     0.07900
H481        H  0.39509589  0.18712810  0.95108954     0.11300
H482        H  0.44026786  0.14360157  0.86420715     0.11600
H483        H  0.41140980  0.20738252  0.83579305     0.07900
C484        C  0.38379979  0.30012008  0.83434773    -0.11200
C485        C  0.36752395  0.33693263  0.81797596    -0.10500
C486        C  0.33690313  0.35002144  0.82691440    -0.01400
C487        C  0.32268681  0.32514833  0.85224664    -0.11600
C488        C  0.33879306  0.28784159  0.86837195    -0.10000
H489        H  0.40771285  0.29201970  0.82739241     0.07900
H490        H  0.37923875  0.35580418  0.79877172     0.11600
H491        H  0.29900457  0.33436695  0.85950656     0.11300
H492        H  0.32688743  0.26873517  0.88737066     0.07900
C493        C  0.09508235  0.80232728  0.87400215    -0.11200
C494        C  0.11905712  0.77529951  0.88898561     0.05900
C495        C  0.12613442  0.78607615  0.92072011    -0.10000
C496        C  0.10982663  0.82309230  0.93696823    -0.11600
C497        C  0.08593069  0.84996041  0.92193100    -0.01400
C498        C  0.07860165  0.83903898  0.89035131    -0.10500
C499        C  0.13627897  0.73557276  0.87178944     0.06000
H500        H  0.14398262  0.76537860  0.93322358     0.07900
H501        H  0.11583836  0.83033880  0.96137082     0.11300
H502        H  0.06039382  0.85934850  0.87810350     0.11600
H503        H  0.08929161  0.79561113  0.84948067     0.07900
C504        C  0.12055774  0.70493851  0.85006791    -0.11200
C505        C  0.13652697  0.66697902  0.83441195    -0.10500
C506        C  0.16846645  0.65834753  0.84038903    -0.01400
C507        C  0.18432493  0.68897374  0.86188056    -0.11600
C508        C  0.16845416  0.72737381  0.87727458    -0.10000
H509        H  0.09571938  0.70957103  0.84560430     0.07900
H510        H  0.12370153  0.64379046  0.81801687     0.11600
H511        H  0.20904485  0.68356728  0.86664126     0.11300
H512        H  0.18146912  0.75082178  0.89334623     0.07900
C513        C  0.36890529  0.78929566  0.58103399    -0.11200
C514        C  0.37732445  0.77692750  0.61217611     0.05900
C515        C  0.40229329  0.80259677  0.62649431    -0.10000
C516        C  0.41815003  0.84000076  0.61019615    -0.11600
C517        C  0.40924878  0.85283746  0.57933447    -0.01400
C518        C  0.38460706  0.82690810  0.56485053    -0.10500
C519        C  0.35994021  0.73773355  0.62963838     0.06000
H520        H  0.40918610  0.79456447  0.65055532     0.07900
H521        H  0.43705488  0.85942045  0.62196892     0.11300
H522        H  0.37739544  0.83551808  0.54097708     0.11600
H523        H  0.35028680  0.76960455  0.56898334     0.07900
C524        C  0.32737518  0.73183828  0.62546461    -0.11200
C525        C  0.31106383  0.69461026  0.64143236    -0.10500
C526        C  0.32684000  0.66287335  0.66226912    -0.01400
C527        C  0.35924230  0.66902300  0.66687078    -0.11600
C528        C  0.37566726  0.70582736  0.65058028    -0.10000
H529        H  0.31435083  0.75635296  0.61008132     0.07900
H530        H  0.28602345  0.69106900  0.63770378     0.11600
H531        H  0.37201431  0.64482492  0.68268223     0.11300
H532        H  0.40076436  0.70872840  0.65403837     0.07900
C533        C  0.55818169  0.89379900  0.07488048     0.42100
N534        N  0.54957383  0.95286782  0.04210025     0.01000
C535        C  0.91619575  0.09865400  0.03114460    -0.06900
H536        H  0.89764570  0.90768467  0.01659900     0.06500
C537        C  0.96498749  0.91363782  0.41946533    -0.07200
Co538      Co  0.99088580  0.00857726  0.05746969     0.74200
N539        N  0.93686733  0.95404510  0.02908275    -0.26400
Co540      Co  0.94001924  0.00705965  0.49357564     0.74100
C541        C  0.93524687  0.89064282  0.42844961     0.42200
N542        N  0.53789216  0.95072490  0.44739192     0.00600
N543        N  0.94422173  0.95222753  0.45911783     0.00700
N544        N  0.95049499  0.09978006  0.07198657    -0.47300
H545        H  0.51272918  0.91094153  0.10243418     0.06500
N546        N  0.95604168  0.95477832  0.05355323     0.01000
N547        N  0.94478788  0.06040471  0.45840673     0.00700
C548        C  0.93630510  0.12051579  0.42660192     0.42300
N549        N  0.55704709  0.95077964  0.47189220    -0.25900
C550        C  0.52963282  0.09993768  0.08001650    -0.06800
N551        N  0.56992439  0.91763503  0.04942391    -0.47000
N552        N  0.92476186  0.09653202  0.45202492    -0.47200
C553        C  0.55943361  0.12273812  0.07097315     0.42100
N554        N  0.95659713  0.06305522  0.05215145     0.01000
N555        N  0.55784053  0.05846484  0.47067396    -0.25900
N556        N  0.52533083  0.95412192  0.06150522    -0.26400
N557        N  0.53828827  0.05872561  0.44649312     0.00600
H558        H  0.59815930  0.10293249  0.48251649     0.06500
H559        H  0.98120569  0.10347917  0.39815517     0.06500
N560        N  0.93695952  0.06171902  0.02806949    -0.26400
N561        N  0.96847389  0.95141256  0.43972484    -0.26100
N562        N  0.55033587  0.06089211  0.04054705     0.01000
C563        C  0.92522316  0.89374083  0.06267778     0.42400
C564        C  0.57756489  0.91349880  0.46864475    -0.07300
N565        N  0.96879359  0.05920706  0.43869223    -0.26000
H566        H  0.98086786  0.90450898  0.40041231     0.06500
N567        N  0.94980080  0.91949092  0.07430198    -0.47300
H568        H  0.59669722  0.90543672  0.48460115     0.06500
C569        C  0.57016405  0.11817079  0.43689874     0.42200
C570        C  0.52856559  0.91799945  0.08298922    -0.06800
Co571      Co  0.55438169  0.00566029  0.00639298     0.73800
N572        N  0.54443712  0.91517908  0.42687384    -0.47000
C573        C  0.92537710  0.12396078  0.06015974     0.42500
N574        N  0.57095707  0.09636444  0.04645571    -0.47000
Co575      Co  0.50346554  0.00501884  0.44237976     0.73900
C576        C  0.96541961  0.09571653  0.41754412    -0.07300
C577        C  0.91652099  0.91666437  0.03266663    -0.06900
N578        N  0.52605709  0.06202359  0.05990257    -0.26400
N579        N  0.92366612  0.91673635  0.45305290    -0.47200
H580        H  0.89699703  0.10639799  0.01519677     0.06500
C581        C  0.57890487  0.09474526  0.46672122    -0.07300
Cl582      Cl  0.49719633  0.00655282  0.99995667    -0.50300
C583        C  0.56909779  0.88991558  0.43874601     0.42200
H584        H  0.51370801  0.10930519  0.09899885     0.06500
N585        N  0.54485849  0.09379039  0.42567840    -0.47000
C586        C  0.80974362  0.62305669  0.17883513     0.42100
N587        N  0.80027154  0.56220490  0.20985331     0.01000
C588        C  0.66754877  0.41529316  0.21638204    -0.06900
H589        H  0.64706433  0.60522103  0.23635375     0.06500
C590        C  0.71478802  0.59424871  0.33277292    -0.07200
Co591      Co  0.74121818  0.50904406  0.19262920     0.74200
N592        N  0.68693851  0.56080588  0.22271045    -0.26400
Co593      Co  0.69031357  0.50498735  0.25652233     0.74100
C594        C  0.68490280  0.61730752  0.32430998     0.42200
N595        N  0.78805992  0.55854198  0.30423713     0.00600
N596        N  0.69414841  0.55737348  0.29244367     0.00700
N597        N  0.70048993  0.42007992  0.17450457    -0.47300
H598        H  0.76408811  0.60957993  0.15084617     0.06500
N599        N  0.70626486  0.56246740  0.19835102     0.01000
N600        N  0.69514381  0.44937191  0.29023172     0.00700
C601        C  0.68649621  0.38797868  0.32098918     0.42300
N602        N  0.80730375  0.55961197  0.27979729    -0.25900
C603        C  0.78004784  0.41949040  0.16704570    -0.06800
N604        N  0.82120053  0.59701026  0.20346167    -0.47000
N605        N  0.67505566  0.41305537  0.29594659    -0.47200
C606        C  0.80949922  0.39527423  0.17575053     0.42100
N607        N  0.70681553  0.45450668  0.19586936     0.01000
N608        N  0.80785379  0.45198367  0.27820187    -0.25900
N609        N  0.77596298  0.56325130  0.19055165    -0.26400
N610        N  0.78837844  0.45058728  0.30243628     0.00600
H611        H  0.84807253  0.40796740  0.26525075     0.06500
H612        H  0.73123411  0.40385601  0.34990488     0.06500
N613        N  0.68773309  0.45277402  0.22040705    -0.26400
N614        N  0.71843933  0.55747345  0.31177329    -0.26100
N615        N  0.80026913  0.45434420  0.20828739     0.01000
C616        C  0.67473514  0.62332770  0.19097494     0.42400
C617        C  0.82785095  0.59657537  0.28380824    -0.07300
N618        N  0.71901416  0.44971849  0.31008829    -0.26000
H619        H  0.73063441  0.60270471  0.35197417     0.06500
N620        N  0.69961941  0.59901792  0.17864594    -0.47300
H621        H  0.84699157  0.60541006  0.26800573     0.06500
C622        C  0.82010549  0.39035873  0.31057129     0.42200
C623        C  0.77970792  0.60073947  0.17016183    -0.06800
Co624      Co  0.80457159  0.50703266  0.24395010     0.73800
N625        N  0.79460977  0.59299879  0.32550318    -0.47000
C626        C  0.67610199  0.39367773  0.18594051     0.42500
N627        N  0.82070803  0.41899953  0.20145055    -0.47000
Co628      Co  0.75357484  0.50410810  0.30783119     0.73900
C629        C  0.71556787  0.41232941  0.33055613    -0.07300
C630        C  0.66621767  0.59799851  0.22022787    -0.06900
N631        N  0.77631359  0.45549554  0.18853555    -0.26400
N632        N  0.67343130  0.59231167  0.29923872    -0.47200
H633        H  0.64861433  0.40571562  0.23226744     0.06500
C634        C  0.82884023  0.41533884  0.28125335    -0.07300
Cl635      Cl  0.74742076  0.50632281  0.25023152    -0.50300
C636        C  0.81934039  0.61867439  0.31412551     0.42200
H637        H  0.76434221  0.41196225  0.14757303     0.06500
N638        N  0.79491149  0.41436458  0.32242174    -0.47000
C639        C  0.57835745  0.22737664  0.12742756    -0.11200
C640        C  0.60900450  0.24035987  0.11817536     0.05900
C641        C  0.62270445  0.21517527  0.09252587    -0.10000
C642        C  0.60636200  0.17755435  0.07689650    -0.11600
C643        C  0.57605976  0.16399588  0.08668316    -0.01400
C644        C  0.56214058  0.18953000  0.11195284    -0.10500
C645        C  0.62668469  0.27939714  0.13554961     0.06000
H646        H  0.64637545  0.22362559  0.08496458     0.07900
H647        H  0.61769366  0.15849091  0.05747938     0.11300
H648        H  0.53870190  0.18038127  0.11987177     0.11600
H649        H  0.56673324  0.24667513  0.14655752     0.07900
C650        C  0.64740334  0.31134419  0.11958547    -0.11200
C651        C  0.66392482  0.34788845  0.13606777    -0.10500
C652        C  0.65972797  0.35376224  0.16875052    -0.01400
C653        C  0.63922879  0.32185931  0.18477163    -0.11600
C654        C  0.62306150  0.28490512  0.16841816    -0.10000
H655        H  0.65049049  0.30872733  0.09426255     0.07900
H656        H  0.67949290  0.37220481  0.12312603     0.11600
H657        H  0.63585240  0.32510783  0.21004468     0.11300
H658        H  0.60796182  0.26028900  0.18166517     0.07900
C659        C  0.63225993  0.27990872  0.33661819    -0.11200
C660        C  0.63730680  0.27124742  0.36902965     0.05900
C661        C  0.65895228  0.30133365  0.38522184    -0.10000
C662        C  0.67531870  0.33860981  0.36944834    -0.11600
C663        C  0.66997314  0.34742006  0.33726788    -0.01400
C664        C  0.64822064  0.31795302  0.32098719    -0.10500
C665        C  0.62006136  0.23138256  0.38606324     0.06000
H666        H  0.66293938  0.29673126  0.41030261     0.07900
H667        H  0.69161358  0.36130347  0.38267747     0.11300
H668        H  0.64382744  0.32399791  0.29607851     0.11600
H669        H  0.61620714  0.25706545  0.32321680     0.07900
C670        C  0.58883713  0.21956273  0.37819123    -0.11200
C671        C  0.57264748  0.18268467  0.39468540    -0.10500
C672        C  0.58715151  0.15735889  0.41966311    -0.01400
C673        C  0.61824449  0.16902451  0.42757939    -0.11600
C674        C  0.63459540  0.20524608  0.41080528    -0.10000
H675        H  0.57666353  0.23934587  0.35967212     0.07900
H676        H  0.54863038  0.17440736  0.38816155     0.11600
H677        H  0.63022089  0.14957943  0.44638319     0.11300
H678        H  0.65881159  0.21233791  0.41708322     0.07900
C679        C  0.64736832  0.71119886  0.12726126    -0.11200
C680        C  0.62459190  0.73970124  0.14307411     0.05900
C681        C  0.61870181  0.72976726  0.17519536    -0.10000
C682        C  0.63504551  0.69213688  0.19093631    -0.11600
C683        C  0.65780556  0.66397544  0.17496616    -0.01400
C684        C  0.66392452  0.67415283  0.14307284    -0.10500
C685        C  0.60732393  0.77958142  0.12597898     0.06000
H686        H  0.60174234  0.75141253  0.18830725     0.07900
H687        H  0.63000472  0.68539287  0.21560095     0.11300
H688        H  0.68116968  0.65278962  0.13008644     0.11600
H689        H  0.65213699  0.71691322  0.10241089     0.07900
C690        C  0.62252469  0.80763107  0.10252271    -0.11200
C691        C  0.60637767  0.84416359  0.08579915    -0.10500
C692        C  0.57474153  0.85423528  0.09238753    -0.01400
C693        C  0.55945944  0.82673100  0.11598138    -0.11600
C694        C  0.57553364  0.78964670  0.13251202    -0.10000
H695        H  0.64712018  0.80182702  0.09725630     0.07900
H696        H  0.61885589  0.86504409  0.06792664     0.11600
H697        H  0.53501640  0.83341388  0.12145193     0.11300
H698        H  0.56289004  0.76837332  0.15002137     0.07900
C699        C  0.86097039  0.21037247  0.08712452    -0.11200
C700        C  0.87707102  0.24204671  0.10798267     0.05900
C701        C  0.90953276  0.23481314  0.11238143    -0.10000
C702        C  0.92523985  0.19636878  0.09684406    -0.11600
C703        C  0.90900557  0.16509339  0.07606286    -0.01400
C704        C  0.87682865  0.17270919  0.07110144    -0.10500
C705        C  0.85991396  0.28180466  0.12533182     0.06000
H706        H  0.92290193  0.25895349  0.12770824     0.07900
H707        H  0.95016103  0.19134740  0.10084342     0.11300
H708        H  0.86368323  0.14867864  0.05548374     0.11600
H709        H  0.83589885  0.21389131  0.08360325     0.07900
C710        C  0.83421145  0.30611429  0.11133574    -0.09000
C711        C  0.81752097  0.34234907  0.12786775    -0.10500
C712        C  0.82643175  0.35580588  0.15859398    -0.01400
C713        C  0.85222927  0.33208101  0.17258191    -0.11600
C714        C  0.86866641  0.29528131  0.15623749    -0.10000
H715        H  0.82713796  0.29766776  0.08737139     0.07900
H716        H  0.79799253  0.36040675  0.11628133     0.11600
H717        H  0.85953803  0.34164982  0.19631966     0.11300
H718        H  0.88788314  0.27685373  0.16809824     0.07900
C719        C  0.87144029  0.80051458  0.40495561    -0.11200
C720        C  0.88663694  0.77151529  0.38196789     0.05900
C721        C  0.91835763  0.78128982  0.37507680    -0.10000
C722        C  0.93425103  0.81979481  0.39026001    -0.11600
C723        C  0.91887342  0.84905549  0.41289104    -0.01400
C724        C  0.88743399  0.83871021  0.42033312    -0.10500
C725        C  0.86929211  0.73212927  0.36467924     0.06000
H726        H  0.93097844  0.75906894  0.35798741     0.07900
H727        H  0.95859112  0.82645822  0.38431192     0.11300
H728        H  0.87498067  0.86075893  0.43766427     0.11600
H729        H  0.84693970  0.79451930  0.41055514     0.07900
C730        C  0.84665526  0.70290540  0.38010066    -0.11200
C731        C  0.83010823  0.66647024  0.36356075    -0.10500
C732        C  0.83608248  0.65815959  0.33136661    -0.01400
C733        C  0.85860429  0.68729033  0.31592571    -0.11600
C734        C  0.87492912  0.72397069  0.33235125    -0.10000
H735        H  0.84198683  0.70773684  0.40504969     0.07900
H736        H  0.81296567  0.64434790  0.37607725     0.11600
H737        H  0.86347490  0.68213315  0.29104291     0.11300
H738        H  0.89166780  0.74647307  0.31954684     0.07900
C739        C  0.90803034  0.20421187  0.36106592    -0.11200
C740        C  0.88704934  0.23566313  0.37712455     0.05900
C741        C  0.88285296  0.22907564  0.40986145    -0.10000
C742        C  0.89888180  0.19160443  0.42594466    -0.11600
C743        C  0.91990105  0.16064816  0.40978821    -0.01400
C744        C  0.92450343  0.16747122  0.37728577    -0.10500
C745        C  0.86966570  0.27501545  0.35976604     0.06000
H746        H  0.86739519  0.25309022  0.42315732     0.07900
H747        H  0.89509552  0.18712859  0.45108984     0.11300
H748        H  0.94026820  0.14360288  0.36420738     0.11600
H749        H  0.91140973  0.20738263  0.33579340     0.07900
C750        C  0.88379978  0.30012051  0.33434771    -0.11200
C751        C  0.86752399  0.33693256  0.31797626    -0.10500
C752        C  0.83690325  0.35002156  0.32691434    -0.01400
C753        C  0.82268685  0.32514812  0.35224674    -0.11600
C754        C  0.83879321  0.28784194  0.36837161    -0.10000
H755        H  0.90771403  0.29201927  0.32739216     0.07900
H756        H  0.87923996  0.35580684  0.29877018     0.11600
H757        H  0.79900381  0.33436736  0.35950634     0.11300
H758        H  0.82688599  0.26873236  0.38737316     0.07900
C759        C  0.59508228  0.80232700  0.37400227    -0.11200
C760        C  0.61905696  0.77529933  0.38898548     0.05900
C761        C  0.62613437  0.78607600  0.42072019    -0.10000
C762        C  0.60982640  0.82309229  0.43696822    -0.11600
C763        C  0.58593056  0.84996023  0.42193102    -0.01400
C764        C  0.57860129  0.83903896  0.39035113    -0.10500
C765        C  0.63627914  0.73557235  0.37178945     0.06000
H766        H  0.64398211  0.76537989  0.43322326     0.07900
H767        H  0.61583792  0.83033837  0.46137070     0.11300
H768        H  0.56039462  0.85934745  0.37810421     0.11600
H769        H  0.58929098  0.79561021  0.34947961     0.07900
C770        C  0.62055698  0.70493810  0.35006757    -0.11200
C771        C  0.63652735  0.66697902  0.33441223    -0.10500
C772        C  0.66846615  0.65834708  0.34038870    -0.01400
C773        C  0.68432478  0.68897362  0.36188028    -0.11600
C774        C  0.66845420  0.72737402  0.37727454    -0.10000
H775        H  0.59572390  0.70956991  0.34560533     0.07900
H776        H  0.62369881  0.64378563  0.31801434     0.11600
H777        H  0.70904467  0.68356769  0.36664098     0.11300
H778        H  0.68146833  0.75082053  0.39334469     0.07900
C779        C  0.86890535  0.78929572  0.08103390    -0.11200
C780        C  0.87732433  0.77692741  0.11217592     0.05900
C781        C  0.90229318  0.80259691  0.12649442    -0.10000
C782        C  0.91814975  0.84000085  0.11019603    -0.11600
C783        C  0.90924875  0.85283752  0.07933445    -0.01400
C784        C  0.88460697  0.82690804  0.06485047    -0.10500
C785        C  0.85994024  0.73773359  0.12963833     0.06000
H786        H  0.90918523  0.79456532  0.15055425     0.07900
H787        H  0.93705546  0.85942132  0.12196942     0.11300
H788        H  0.87739520  0.83551836  0.04097662     0.11600
H789        H  0.85028660  0.76960265  0.06898241     0.07900
C790        C  0.82737551  0.73183773  0.12546490    -0.11200
C791        C  0.81106373  0.69461038  0.14143214    -0.10500
C792        C  0.82684036  0.66287319  0.16226935    -0.01400
C793        C  0.85924225  0.66902376  0.16687057    -0.11600
C794        C  0.87566716  0.70582713  0.15058062    -0.10000
H795        H  0.81434920  0.75635605  0.11007922     0.07900
H796        H  0.78602471  0.69106893  0.13770395     0.11600
H797        H  0.87201669  0.64482094  0.18268574     0.11300
H798        H  0.90076670  0.70872882  0.15403850     0.07900
C799        C  0.55818146  0.89379903  0.57488074     0.42100
N800        N  0.54957381  0.95286768  0.54210036     0.01000
C801        C  0.91619582  0.09865387  0.53114459    -0.06900
H802        H  0.89764466  0.90768394  0.51659772     0.06500
C803        C  0.96498734  0.91363811  0.91946557    -0.07200
Co804      Co  0.99088580  0.00857720  0.55746979     0.74200
N805        N  0.93686725  0.95404511  0.52908256    -0.26400
Co806      Co  0.94001922  0.00705958  0.99357561     0.74100
C807        C  0.93524712  0.89064263  0.92844933     0.42200
N808        N  0.53789219  0.95072513  0.94739198     0.00600
N809        N  0.94422157  0.95222716  0.95911779     0.00700
N810        N  0.95049498  0.09978010  0.57198657    -0.47300
H811        H  0.51272814  0.91094183  0.60243589     0.06500
N812        N  0.95604173  0.95477809  0.55355337     0.01000
N813        N  0.94478779  0.06040477  0.95840664     0.00700
C814        C  0.93630526  0.12051578  0.92660174     0.42300
N815        N  0.55704693  0.95077998  0.97189194    -0.25900
C816        C  0.52963247  0.09993798  0.58001685    -0.06800
N817        N  0.56992422  0.91763487  0.54942408    -0.47000
N818        N  0.92476188  0.09653202  0.95202477    -0.47200
C819        C  0.55943369  0.12273796  0.57097311     0.42100
N820        N  0.95659722  0.06305536  0.55215160     0.01000
N821        N  0.55784013  0.05846481  0.97067371    -0.25900
N822        N  0.52533079  0.95412189  0.56150543    -0.26400
N823        N  0.53828822  0.05872557  0.94649311     0.00600
H824        H  0.59815630  0.10293166  0.98251414     0.06500
H825        H  0.98120730  0.10347973  0.89815363     0.06500
N826        N  0.93695966  0.06171907  0.52806942    -0.26400
N827        N  0.96847416  0.95141242  0.93972448    -0.26100
N828        N  0.55033576  0.06089189  0.54054714     0.01000
C829        C  0.92522310  0.89374065  0.56267766     0.42400
C830        C  0.57756505  0.91349882  0.96864496    -0.07300
N831        N  0.96879367  0.05920720  0.93869204    -0.26000
H832        H  0.98087050  0.90450766  0.90040988     0.06500
N833        N  0.94980078  0.91949105  0.57430188    -0.47300
H834        H  0.59669596  0.90543778  0.98460008     0.06500
C835        C  0.57016379  0.11817093  0.93689849     0.42200
C836        C  0.52856557  0.91799967  0.58298922    -0.06800
Co837      Co  0.55438175  0.00566015  0.50639303     0.73800
N838        N  0.54443716  0.91517907  0.92687369    -0.47000
C839        C  0.92537706  0.12396083  0.56015980     0.42500
N840        N  0.57095726  0.09636441  0.54645579    -0.47000
Co841      Co  0.50346553  0.00501891  0.94237969     0.73900
C842        C  0.96541957  0.09571637  0.91754423    -0.07300
C843        C  0.91652124  0.91666454  0.53266674    -0.06900
N844        N  0.52605733  0.06202339  0.55990239    -0.26400
N845        N  0.92366629  0.91673643  0.95305283    -0.47200
H846        H  0.89699719  0.10639736  0.51519677     0.06500
C847        C  0.57890515  0.09474563  0.96672137    -0.07300
Cl848      Cl  0.49719628  0.00655276  0.49995679    -0.50300
C849        C  0.56909779  0.88991584  0.93874596     0.42200
H850        H  0.51370959  0.10930409  0.59899678     0.06500
N851        N  0.54485832  0.09379060  0.92567818    -0.47000
C852        C  0.80974354  0.62305692  0.67883518     0.42100
N853        N  0.80027154  0.56220507  0.70985337     0.01000
C854        C  0.66754870  0.41529285  0.71638201    -0.06900
H855        H  0.64706305  0.60522101  0.73635519     0.06500
C856        C  0.71478789  0.59424868  0.83277273    -0.07200
Co857      Co  0.74121813  0.50904399  0.69262917     0.74200
N858        N  0.68693831  0.56080576  0.72271060    -0.26400
Co859      Co  0.69031351  0.50498727  0.75652227     0.74100
C860        C  0.68490282  0.61730779  0.82430999     0.42200
N861        N  0.78805987  0.55854186  0.80423711     0.00600
N862        N  0.69414822  0.55737370  0.79244357     0.00700
N863        N  0.70048996  0.42007986  0.67450453    -0.47300
H864        H  0.76408818  0.60957991  0.65084631     0.06500
N865        N  0.70626486  0.56246747  0.69835097     0.01000
N866        N  0.69514372  0.44937173  0.79023163     0.00700
C867        C  0.68649611  0.38797857  0.82098910     0.42300
N868        N  0.80730362  0.55961209  0.77979724    -0.25900
C869        C  0.78004782  0.41949043  0.66704576    -0.06800
N870        N  0.82120046  0.59701024  0.70346161    -0.47000
N871        N  0.67505554  0.41305535  0.79594655    -0.47200
C872        C  0.80949904  0.39527427  0.67575052     0.42100
N873        N  0.70681554  0.45450649  0.69586946     0.01000
N874        N  0.80785350  0.45198387  0.77820205    -0.25900
N875        N  0.77596294  0.56325121  0.69055161    -0.26400
N876        N  0.78837828  0.45058736  0.80243629     0.00600
H877        H  0.84807048  0.40796889  0.76525315     0.06500
H878        H  0.73123307  0.40385645  0.84990366     0.06500
N879        N  0.68773304  0.45277393  0.72040698    -0.26400
N880        N  0.71843936  0.55747345  0.81177341    -0.26100
N881        N  0.80026881  0.45434424  0.70828736     0.01000
C882        C  0.67473504  0.62332776  0.69097513     0.42400
C883        C  0.82785090  0.59657540  0.78380817    -0.07300
N884        N  0.71901401  0.44971856  0.81008822    -0.26000
H885        H  0.73063520  0.60270544  0.85197475     0.06500
N886        N  0.69961938  0.59901780  0.67864616    -0.47300
H887        H  0.84699140  0.60541007  0.76800587     0.06500
C888        C  0.82010529  0.39035885  0.81057147     0.42200
C889        C  0.77970793  0.60073944  0.67016181    -0.06800
Co890      Co  0.80457153  0.50703271  0.74395015     0.73800
N891        N  0.79460973  0.59299880  0.82550314    -0.47000
C892        C  0.67610201  0.39367756  0.68594045     0.42500
N893        N  0.82070799  0.41899938  0.70145056    -0.47000
Co894      Co  0.75357474  0.50410811  0.80783122     0.73900
C895        C  0.71556792  0.41232925  0.83055635    -0.07300
C896        C  0.66621781  0.59799817  0.72022786    -0.06900
N897        N  0.77631358  0.45549542  0.68853540    -0.26400
N898        N  0.67343133  0.59231158  0.79923876    -0.47200
H899        H  0.64861454  0.40571539  0.73226709     0.06500
C900        C  0.82884052  0.41533884  0.78125325    -0.07300
Cl901      Cl  0.74742067  0.50632280  0.75023155    -0.50300
C902        C  0.81934041  0.61867415  0.81412552     0.42200
H903        H  0.76434120  0.41196218  0.64757121     0.06500
N904        N  0.79491136  0.41436455  0.82242182    -0.47000
C905        C  0.57835752  0.22737663  0.62742742    -0.11200
C906        C  0.60900441  0.24035962  0.61817534     0.05900
C907        C  0.62270457  0.21517507  0.59252563    -0.10000
C908        C  0.60636186  0.17755437  0.57689655    -0.11600
C909        C  0.57605997  0.16399576  0.58668305    -0.01400
C910        C  0.56214046  0.18952997  0.61195283    -0.10500
C911        C  0.62668436  0.27939654  0.63554984     0.06000
H912        H  0.64637477  0.22362479  0.58496486     0.07900
H913        H  0.61769449  0.15848918  0.55747811     0.11300
H914        H  0.53870332  0.18038190  0.61987119     0.11600
H915        H  0.56673294  0.24667536  0.64655771     0.07900
C916        C  0.64740308  0.31134373  0.61958546    -0.11200
C917        C  0.66392480  0.34788830  0.63606763    -0.10500
C918        C  0.65972800  0.35376194  0.66875019    -0.01400
C919        C  0.63922860  0.32185892  0.68477213    -0.11600
C920        C  0.62306177  0.28490521  0.66841772    -0.10000
H921        H  0.65048992  0.30872717  0.59426314     0.07900
H922        H  0.67949209  0.37220306  0.62312645     0.11600
H923        H  0.63585310  0.32510744  0.71004062     0.11300
H924        H  0.60795944  0.26028451  0.68166764     0.07900
C925        C  0.63225995  0.27990855  0.83661821    -0.11200
C926        C  0.63730692  0.27124734  0.86902998     0.05900
C927        C  0.65895207  0.30133370  0.88522129    -0.10000
C928        C  0.67531875  0.33860989  0.86944867    -0.11600
C929        C  0.66997295  0.34741989  0.83726775    -0.01400
C930        C  0.64822062  0.31795288  0.82098728    -0.10500
C931        C  0.62006170  0.23138257  0.88606340     0.06000
H932        H  0.66294004  0.29673061  0.91030688     0.07900
H933        H  0.69161195  0.36130222  0.88267639     0.11300
H934        H  0.64382709  0.32399799  0.79607799     0.11600
H935        H  0.61620756  0.25706545  0.82321716     0.07900
C936        C  0.58883727  0.21956273  0.87819130    -0.11200
C937        C  0.57264756  0.18268488  0.89468531    -0.10500
C938        C  0.58715151  0.15735914  0.91966300    -0.01400
C939        C  0.61824482  0.16902463  0.92757941    -0.11600
C940        C  0.63459515  0.20524581  0.91080521    -0.10000
H941        H  0.57666354  0.23934637  0.85967201     0.07900
H942        H  0.54863011  0.17440767  0.88816146     0.11600
H943        H  0.63022071  0.14957948  0.94638306     0.11300
H944        H  0.65881557  0.21233888  0.91708428     0.07900
C945        C  0.64736839  0.71119850  0.62726172    -0.11200
C946        C  0.62459217  0.73970110  0.64307381     0.05900
C947        C  0.61870187  0.72976709  0.67519557    -0.10000
C948        C  0.63504555  0.69213712  0.69093576    -0.11600
C949        C  0.65780539  0.66397551  0.67496663    -0.01400
C950        C  0.66392459  0.67415274  0.64307276    -0.10500
C951        C  0.60732416  0.77958138  0.62597885     0.06000
H952        H  0.60174287  0.75141316  0.68830696     0.07900
H953        H  0.63000372  0.68539175  0.71560577     0.11300
H954        H  0.68116936  0.65278953  0.63008733     0.11600
H955        H  0.65213783  0.71691356  0.60240712     0.07900
C956        C  0.62252469  0.80763123  0.60252278    -0.11200
C957        C  0.60637762  0.84416381  0.58579923    -0.10500
C958        C  0.57474134  0.85423536  0.59238765    -0.01400
C959        C  0.55945979  0.82673083  0.61598128    -0.11600
C960        C  0.57553365  0.78964634  0.63251216    -0.10000
H961        H  0.64712041  0.80182705  0.59725634     0.07900
H962        H  0.61885572  0.86504448  0.56792695     0.11600
H963        H  0.53501484  0.83341390  0.62145249     0.11300
H964        H  0.56289142  0.76837436  0.65001988     0.07900
C965        C  0.86097027  0.21037274  0.58712442    -0.11200
C966        C  0.87707132  0.24204678  0.60798286     0.05900
C967        C  0.90953268  0.23481272  0.61238140    -0.10000
C968        C  0.92524014  0.19636874  0.59684433    -0.11600
C969        C  0.90900546  0.16509343  0.57606289    -0.01400
C970        C  0.87682872  0.17270938  0.57110135    -0.10500
C971        C  0.85991404  0.28180456  0.62533180     0.06000
H972        H  0.92290340  0.25895522  0.62771011     0.07900
H973        H  0.95015978  0.19134698  0.60084356     0.11300
H974        H  0.86368318  0.14867916  0.55548346     0.11600
H975        H  0.83590036  0.21389145  0.58360342     0.07900
C976        C  0.83421163  0.30611437  0.61133592    -0.09000
C977        C  0.81752079  0.34234940  0.62786762    -0.10500
C978        C  0.82643171  0.35580577  0.65859390    -0.01400
C979        C  0.85222928  0.33208103  0.67258239    -0.11600
C980        C  0.86866622  0.29528105  0.65623741    -0.10000
H981        H  0.82713776  0.29766794  0.58737020     0.07900
H982        H  0.79799397  0.36040588  0.61628220     0.11600
H983        H  0.85953687  0.34164838  0.69631660     0.11300
H984        H  0.88788342  0.27685282  0.66809908     0.07900
C985        C  0.87144009  0.80051455  0.90495557    -0.11200
C986        C  0.88663727  0.77151493  0.88196749     0.05900
C987        C  0.91835732  0.78128994  0.87507693    -0.10000
C988        C  0.93425122  0.81979428  0.89025966    -0.11600
C989        C  0.91887334  0.84905546  0.91289105    -0.01400
C990        C  0.88743426  0.83870996  0.92033285    -0.10500
C991        C  0.86929195  0.73212907  0.86467923     0.06000
H992        H  0.93098042  0.75906481  0.85798431     0.07900
H993        H  0.95859036  0.82645759  0.88431226     0.11300
H994        H  0.87497963  0.86076039  0.93766543     0.11600
H995        H  0.84694173  0.79452007  0.91055410     0.07900
C996        C  0.84665535  0.70290552  0.88010062    -0.11200
C997        C  0.83010813  0.66647002  0.86356068    -0.10500
C998        C  0.83608261  0.65815951  0.83136637    -0.01400
C999        C  0.85860414  0.68729018  0.81592574    -0.11600
C1000       C  0.87492937  0.72397103  0.83235090    -0.10000
H1001       H  0.84198722  0.70773650  0.90504924     0.07900
H1002       H  0.81296676  0.64434908  0.87607631     0.11600
H1003       H  0.86347545  0.68213304  0.79104210     0.11300
H1004       H  0.89166544  0.74647045  0.81954832     0.07900
C1005       C  0.90803032  0.20421176  0.86106587    -0.11200
C1006       C  0.88704919  0.23566326  0.87712474     0.05900
C1007       C  0.88285326  0.22907527  0.90986130    -0.10000
C1008       C  0.89888191  0.19160445  0.92594484    -0.11600
C1009       C  0.91990123  0.16064795  0.90978794    -0.01400
C1010       C  0.92450327  0.16747150  0.87728583    -0.10500
C1011       C  0.86966553  0.27501545  0.85976609     0.06000
H1012       H  0.86739386  0.25309252  0.92315878     0.07900
H1013       H  0.89509632  0.18712862  0.95108872     0.11300
H1014       H  0.94026936  0.14360088  0.86420607     0.11600
H1015       H  0.91140938  0.20738263  0.83579369     0.07900
C1016       C  0.88379992  0.30012039  0.83434766    -0.11200
C1017       C  0.86752388  0.33693242  0.81797638    -0.10500
C1018       C  0.83690337  0.35002169  0.82691427    -0.01400
C1019       C  0.82268678  0.32514817  0.85224673    -0.11600
C1020       C  0.83879311  0.28784186  0.86837167    -0.10000
H1021       H  0.90771277  0.29201977  0.82739298     0.07900
H1022       H  0.87924065  0.35580723  0.79876893     0.11600
H1023       H  0.79900447  0.33436714  0.85950635     0.11300
H1024       H  0.82688611  0.26873318  0.88737282     0.07900
C1025       C  0.59508226  0.80232726  0.87400212    -0.11200
C1026       C  0.61905687  0.77529947  0.88898542     0.05900
C1027       C  0.62613440  0.78607604  0.92072012    -0.10000
C1028       C  0.60982642  0.82309236  0.93696820    -0.11600
C1029       C  0.58593064  0.84996042  0.92193106    -0.01400
C1030       C  0.57860140  0.83903913  0.89035122    -0.10500
C1031       C  0.63627894  0.73557262  0.87178928     0.06000
H1032       H  0.64398145  0.76538040  0.93322266     0.07900
H1033       H  0.61583831  0.83033838  0.96137091     0.11300
H1034       H  0.56039444  0.85934785  0.87810396     0.11600
H1035       H  0.58929130  0.79561102  0.84948029     0.07900
C1036       C  0.62055759  0.70493795  0.85006770    -0.11200
C1037       C  0.63652713  0.66697937  0.83441231    -0.10500
C1038       C  0.66846641  0.65834725  0.84038893    -0.01400
C1039       C  0.68432437  0.68897399  0.86188040    -0.11600
C1040       C  0.66845429  0.72737373  0.87727449    -0.10000
H1041       H  0.59571927  0.70957088  0.84560447     0.07900
H1042       H  0.62369907  0.64378577  0.81801427     0.11600
H1043       H  0.70904858  0.68356675  0.86664180     0.11300
H1044       H  0.68146896  0.75082274  0.89334567     0.07900
C1045       C  0.86890548  0.78929579  0.58103409    -0.11200
C1046       C  0.87732438  0.77692754  0.61217612     0.05900
C1047       C  0.90229317  0.80259723  0.62649434    -0.10000
C1048       C  0.91814971  0.84000095  0.61019614    -0.11600
C1049       C  0.90924871  0.85283740  0.57933439    -0.01400
C1050       C  0.88460689  0.82690784  0.56485054    -0.10500
C1051       C  0.85994043  0.73773374  0.62963859     0.06000
H1052       H  0.90918588  0.79456516  0.65055562     0.07900
H1053       H  0.93705523  0.85942132  0.62196933     0.11300
H1054       H  0.87739515  0.83551806  0.54097623     0.11600
H1055       H  0.85028579  0.76960203  0.56898232     0.07900
C1056       C  0.82737540  0.73183814  0.62546475    -0.11200
C1057       C  0.81106373  0.69461052  0.64143218    -0.10500
C1058       C  0.82684017  0.66287339  0.66226918    -0.01400
C1059       C  0.85924237  0.66902347  0.66687092    -0.11600
C1060       C  0.87566694  0.70582723  0.65058068    -0.10000
H1061       H  0.81435000  0.75635457  0.61008015     0.07900
H1062       H  0.78602453  0.69106935  0.63770391     0.11600
H1063       H  0.87201515  0.64482282  0.68268388     0.11300
H1064       H  0.90076795  0.70872886  0.65403936     0.07900
loop_ 
_geom_bond_atom_site_label_1 
_geom_bond_atom_site_label_2 
_geom_bond_distance 
_geom_bond_site_symmetry_2 
_ccdc_geom_bond_type 
C1           N19   1.352       .  A
C1           C38   1.461       .  S
C1          C160   1.481       .  S
N2           N19   1.325       .  A
N2           N24   1.320       .  A
N2          Co39   2.090   1_565  S
C3           N28   1.340       .  A
C3           C41   1.459       .  S
C3           H48   1.081       .  S
H4           C45   1.081       .  S
C5           N29   1.341       .  A
C5            C9   1.462       .  S
C5           H34   1.081       .  S
Co6          N14   2.085   1_545  S
Co6          N22   2.086       .  S
Co6         N556   2.085   1_545  S
Co6         N578   2.084       .  S
Co6        Cl582   2.450   1_554  S
N7           C45   1.340       .  A
N7           N14   1.320       .  A
N7         Co274   2.082   1_564  S
Co8          N11   2.086   1_545  S
Co8          N15   2.083       .  S
Co8         N273   2.082   1_545  S
Co8         N294   2.080       .  S
Co8        Cl848   2.451       .  S
C9           N47   1.350       .  A
C9          C191   1.478       .  S
N10          N17   1.320       .  A
N10          N40   1.324       .  A
N10         Co43   2.085   1_565  S
N11          N29   1.319       .  A
N11          N47   1.324       .  A
N12          C41   1.350       .  A
N12          N22   1.325       .  A
H13          C38   1.081       .  S
N14          N35   1.324       .  A
N15          N33   1.320       .  A
N15          N20   1.325       .  A
C16          N20   1.349       .  A
C16          C44   1.460       .  S
C16         C211   1.474       .  S
N17          C32   1.341       .  A
N17        Co305   2.084   1_565  S
C18          N46   1.340       .  A
C18          C21   1.462       .  S
C18          H52   1.081       .  S
C21          N42   1.351       .  A
C21         C111   1.479       .  S
N22          N28   1.320       .  A
N23          C49   1.340       .  A
N23          N25   1.320       .  A
N23        Co305   2.085       .  S
N24          C38   1.342       .  A
N24        Co538   2.085   1_465  S
N25          N53   1.324       .  A
N25         Co43   2.083       .  S
H26          C49   1.081       .  S
H27          C44   1.081       .  S
N28        Co274   2.080   1_554  S
N29        Co575   2.082   1_565  S
N30          N42   1.324       .  A
N30          N46   1.319       .  A
N30         Co39   2.084       .  S
C31          N35   1.350       .  A
C31          C45   1.462       .  S
C31         C251   1.478       .  S
C32          C51   1.462       .  S
C32          H36   1.081       .  S
N33          C44   1.341       .  A
N33        Co575   2.086       .  S
C37          N53   1.350       .  A
C37          C49   1.461       .  S
C37         C140   1.476       .  S
Co39        N283   2.084   1_544  S
Co39        N289   2.085   1_554  S
Co39        Cl50   2.452   1_454  S
N40          C51   1.350       .  A
C41         C171   1.474       .  S
Co43        N561   2.082   1_445  S
Co43        N565   2.086   1_455  S
Co43       Cl316   2.452   1_455  S
N46        Co538   2.084   1_455  S
Cl50       Co538   2.450   1_556  S
Cl50       Co806   2.451       .  S
Cl50       Co309   2.452   1_655  S
C51         C231   1.478       .  S
C54          N72   1.350       .  A
C54          C91   1.462       .  S
C54         C260   1.477       .  S
N55          N72   1.324       .  A
N55          N77   1.320       .  A
N55         Co92   2.084       .  S
C56          N81   1.340       .  A
C56          C94   1.460       .  S
C56         H101   1.081       .  S
H57          C98   1.081       .  S
C58          N82   1.342       .  A
C58          C62   1.462       .  S
C58          H87   1.081       .  S
Co59         N77   2.085       .  S
Co59         N67   2.088       .  S
Co59         N99   2.088       .  S
Co59         N75   2.084       .  S
Co59       Cl103   2.454       .  S
N60          C98   1.342       .  A
N60          N67   1.320       .  A
N60         Co61   2.086       .  S
Co61         N64   2.083       .  S
Co61         N81   2.082       .  S
Co61         N68   2.084       .  S
Co61       Cl103   2.447       .  S
C62         N100   1.349       .  A
C62         C240   1.477       .  S
N63          N70   1.320       .  A
N63          N93   1.325       .  A
N63         Co96   2.085       .  S
N64          N82   1.320       .  A
N64         N100   1.324       .  A
N65          C94   1.350       .  A
N65          N75   1.325       .  A
H66          C91   1.081       .  S
N67          N88   1.324       .  A
N68          N86   1.320       .  A
N68          N73   1.325       .  A
C69          N73   1.350       .  A
C69          C97   1.460       .  S
C69         C131   1.474       .  S
N70          C85   1.339       .  A
N70         Co92   2.081       .  S
C71          N99   1.341       .  A
C71          C74   1.462       .  S
C71         H105   1.081       .  S
C74          N95   1.350       .  A
C74         C180   1.478       .  S
N75          N81   1.319       .  A
N76         C102   1.340       .  A
N76          N78   1.319       .  A
N76         Co92   2.083       .  S
N77          C91   1.341       .  A
N78         N106   1.324       .  A
N78         Co96   2.083       .  S
H79         C102   1.081       .  S
H80          C97   1.081       .  S
N82         Co96   2.085       .  S
N83          N95   1.324       .  A
N83          N99   1.320       .  A
N83         Co92   2.082       .  S
C84          N88   1.351       .  A
C84          C98   1.461       .  S
C84         C151   1.479       .  S
C85         C104   1.460       .  S
C85          H89   1.081       .  S
N86          C97   1.340       .  A
N86         Co96   2.083       .  S
C90         N106   1.350       .  A
C90         C102   1.461       .  S
C90         C220   1.477       .  S
Co92       Cl103   2.449       .  S
N93         C104   1.351       .  A
C94         C120   1.476       .  S
Co96       Cl103   2.453       .  S
C104        C200   1.476       .  S
C107        H117   1.082       .  S
C107        C108   1.407       .  A
C107        C112   1.397       .  A
C108        C113   1.490       .  S
C108        C109   1.407       .  A
C109        H114   1.082       .  S
C109        C110   1.399       .  A
C110        H115   1.083       .  S
C110        C111   1.404       .  A
C111        C112   1.403       .  A
C112        H116   1.082       .  S
C113        C118   1.408       .  A
C113        C122   1.407       .  A
C118        H123   1.082       .  S
C118        C119   1.399       .  A
C119        H124   1.083       .  S
C119        C120   1.404       .  A
C120        C121   1.402       .  A
C121        H125   1.083       .  S
C121        C122   1.397       .  A
C122        H126   1.082       .  S
C127        H137   1.082       .  S
C127        C128   1.409       .  A
C127        C132   1.400       .  A
C128        C133   1.491       .  S
C128        C129   1.408       .  A
C129        H134   1.082       .  S
C129        C130   1.396       .  A
C130        H135   1.082       .  S
C130        C131   1.402       .  A
C131        C132   1.403       .  A
C132        H136   1.083       .  S
C133        C138   1.408       .  A
C133        C142   1.407       .  A
C138        H143   1.082       .  S
C138        C139   1.399       .  A
C139        H144   1.083       .  S
C139        C140   1.404       .  A
C140        C141   1.402       .  A
C141        H145   1.082       .  S
C141        C142   1.396       .  A
C142        H146   1.083       .  S
C147        H157   1.083       .  S
C147        C148   1.407       .  A
C147        C152   1.396       .  A
C148        C153   1.493       .  S
C148        C149   1.409       .  A
C149        H154   1.082       .  S
C149        C150   1.402       .  A
C150        H155   1.082       .  S
C150        C151   1.405       .  A
C151        C152   1.402       .  A
C152        H156   1.083       .  S
C153        C158   1.407       .  A
C153        C162   1.408       .  A
C158        H163   1.082       .  S
C158        C159   1.397       .  A
C159        H164   1.083       .  S
C159        C160   1.403       .  A
C160        C161   1.405       .  A
C161        H165   1.082       .  S
C161        C162   1.402       .  A
C162        H166   1.082       .  S
C167        H177   1.083       .  S
C167        C168   1.408       .  A
C167        C172   1.397       .  A
C168        C173   1.492       .  S
C168        C169   1.409       .  A
C169        H174   1.082       .  S
C169        C170   1.399       .  A
C170        H175   1.083       .  S
C170        C171   1.402       .  A
C171        C172   1.402       .  A
C172        H176   1.083       .  S
C173        C178   1.408       .  A
C173        C182   1.408       .  A
C178        H183   1.083       .  S
C178        C179   1.397       .  A
C179        H184   1.082       .  S
C179        C180   1.403       .  A
C180        C181   1.404       .  A
C181        H185   1.083       .  S
C181        C182   1.399       .  A
C182        H186   1.082       .  S
C187        H197   1.082       .  S
C187        C188   1.406       .  A
C187        C192   1.398       .  A
C188        C193   1.488       .  S
C188        C189   1.407       .  A
C189        H194   1.082       .  S
C189        C190   1.398       .  A
C190        H195   1.082       .  S
C190        C191   1.403       .  A
C191        C192   1.404       .  A
C192        H196   1.083       .  S
C193        C198   1.407       .  A
C193        C202   1.406       .  A
C198        H203   1.082       .  S
C198        C199   1.399       .  A
C199        H204   1.083       .  S
C199        C200   1.404       .  A
C200        C201   1.403       .  A
C201        H205   1.082       .  S
C201        C202   1.396       .  A
C202        H206   1.083       .  S
C207        H217   1.083       .  S
C207        C208   1.408       .  A
C207        C212   1.397       .  A
C208        C213   1.490       .  S
C208        C209   1.409       .  A
C209        H214   1.082       .  S
C209        C210   1.399       .  A
C210        H215   1.083       .  S
C210        C211   1.403       .  A
C211        C212   1.402       .  A
C212        H216   1.083       .  S
C213        C218   1.408       .  A
C213        C222   1.408       .  A
C218        H223   1.082       .  S
C218        C219   1.397       .  A
C219        H224   1.082       .  S
C219        C220   1.403       .  A
C220        C221   1.403       .  A
C221        H225   1.083       .  S
C221        C222   1.398       .  A
C222        H226   1.082       .  S
C227        H237   1.082       .  S
C227        C228   1.407       .  A
C227        C232   1.398       .  A
C228        C233   1.489       .  S
C228        C229   1.407       .  A
C229        H234   1.082       .  S
C229        C230   1.398       .  A
C230        H235   1.082       .  S
C230        C231   1.404       .  A
C231        C232   1.404       .  A
C232        H236   1.083       .  S
C233        C238   1.407       .  A
C233        C242   1.408       .  A
C238        H243   1.082       .  S
C238        C239   1.397       .  A
C239        H244   1.083       .  S
C239        C240   1.404       .  A
C240        C241   1.403       .  A
C241        H245   1.082       .  S
C241        C242   1.399       .  A
C242        H246   1.082       .  S
C247        H257   1.083       .  S
C247        C248   1.407       .  A
C247        C252   1.397       .  A
C248        C253   1.489       .  S
C248        C249   1.407       .  A
C249        H254   1.082       .  S
C249        C250   1.398       .  A
C250        H255   1.083       .  S
C250        C251   1.404       .  A
C251        C252   1.403       .  A
C252        H256   1.082       .  S
C253        C258   1.408       .  A
C253        C262   1.407       .  A
C258        H263   1.083       .  S
C258        C259   1.398       .  A
C259        H264   1.083       .  S
C259        C260   1.403       .  A
C260        C261   1.404       .  A
C261        H265   1.083       .  S
C261        C262   1.398       .  A
C262        H266   1.082       .  S
C267        N285   1.352       .  A
C267        C304   1.461       .  S
C267        C426   1.481       .  S
N268        N285   1.325       .  A
N268        N290   1.320       .  A
N268       Co305   2.090   1_565  S
C269        N294   1.340       .  A
C269        C307   1.459       .  S
C269        H314   1.081       .  S
H270        C311   1.081       .  S
C271        N295   1.341       .  A
C271        C275   1.462       .  S
C271        H300   1.081       .  S
Co272       N822   2.085   1_545  S
Co272       N280   2.085   1_545  S
Co272       N844   2.084       .  S
Co272       N288   2.086       .  S
Co272      Cl848   2.450       .  S
N273        C311   1.340       .  A
N273        N280   1.320       .  A
Co274       N277   2.086   1_545  S
Co274       N281   2.083       .  S
Co274      Cl582   2.451       .  S
C275        N313   1.350       .  A
C275        C457   1.478       .  S
N276        N283   1.320       .  A
N276        N306   1.324       .  A
N276       Co309   2.085   1_565  S
N277        N295   1.319       .  A
N277        N313   1.324       .  A
N278        C307   1.350       .  A
N278        N288   1.325       .  A
H279        C304   1.081       .  S
N280        N301   1.324       .  A
N281        N299   1.320       .  A
N281        N286   1.325       .  A
C282        N286   1.349       .  A
C282        C310   1.460       .  S
C282        C477   1.474       .  S
N283        C298   1.341       .  A
C284        N312   1.340       .  A
C284        C287   1.462       .  S
C284        H318   1.081       .  S
C287        N308   1.350       .  A
C287        C377   1.479       .  S
N288        N294   1.320       .  A
N289        C315   1.340       .  A
N289        N291   1.320       .  A
N290        C304   1.342       .  A
N290       Co804   2.085   1_465  S
N291        N319   1.325       .  A
N291       Co309   2.083       .  S
H292        C315   1.081       .  S
H293        C310   1.081       .  S
N295       Co841   2.082   1_565  S
N296        N308   1.324       .  A
N296        N312   1.319       .  A
N296       Co305   2.084       .  S
C297        N301   1.350       .  A
C297        C311   1.462       .  S
C297        C517   1.478       .  S
C298        C317   1.462       .  S
C298        H302   1.081       .  S
N299        C310   1.341       .  A
N299       Co841   2.086       .  S
C303        N319   1.350       .  A
C303        C315   1.461       .  S
C303        C406   1.476       .  S
Co305      Cl316   2.452   1_455  S
N306        C317   1.350       .  A
C307        C437   1.474       .  S
Co309       N827   2.082   1_445  S
Co309       N831   2.086   1_455  S
N312       Co804   2.084   1_455  S
Cl316      Co804   2.450       .  S
Cl316      Co540   2.451       .  S
C317        C497   1.478       .  S
C320        N338   1.350       .  A
C320        C357   1.462       .  S
C320        C526   1.477       .  S
N321        N338   1.324       .  A
N321        N343   1.320       .  A
N321       Co358   2.084       .  S
C322        N347   1.340       .  A
C322        C360   1.460       .  S
C322        H367   1.081       .  S
H323        C364   1.081       .  S
C324        N348   1.342       .  A
C324        C328   1.462       .  S
C324        H353   1.081       .  S
Co325       N343   2.085       .  S
Co325       N333   2.088       .  S
Co325       N365   2.088       .  S
Co325       N341   2.084       .  S
Co325      Cl369   2.454       .  S
N326        C364   1.342       .  A
N326        N333   1.320       .  A
N326       Co327   2.085       .  S
Co327       N330   2.083       .  S
Co327       N347   2.082       .  S
Co327       N334   2.084       .  S
Co327      Cl369   2.447       .  S
C328        N366   1.349       .  A
C328        C506   1.477       .  S
N329        N336   1.320       .  A
N329        N359   1.325       .  A
N329       Co362   2.085       .  S
N330        N348   1.320       .  A
N330        N366   1.324       .  A
N331        C360   1.350       .  A
N331        N341   1.325       .  A
H332        C357   1.081       .  S
N333        N354   1.324       .  A
N334        N352   1.320       .  A
N334        N339   1.325       .  A
C335        N339   1.350       .  A
C335        C363   1.460       .  S
C335        C397   1.474       .  S
N336        C351   1.339       .  A
N336       Co358   2.081       .  S
C337        N365   1.341       .  A
C337        C340   1.462       .  S
C337        H371   1.081       .  S
C340        N361   1.350       .  A
C340        C446   1.478       .  S
N341        N347   1.319       .  A
N342        C368   1.340       .  A
N342        N344   1.319       .  A
N342       Co358   2.083       .  S
N343        C357   1.341       .  A
N344        N372   1.324       .  A
N344       Co362   2.083       .  S
H345        C368   1.081       .  S
H346        C363   1.081       .  S
N348       Co362   2.085       .  S
N349        N361   1.324       .  A
N349        N365   1.320       .  A
N349       Co358   2.082       .  S
C350        N354   1.351       .  A
C350        C364   1.461       .  S
C350        C417   1.479       .  S
C351        C370   1.460       .  S
C351        H355   1.081       .  S
N352        C363   1.340       .  A
N352       Co362   2.083       .  S
C356        N372   1.350       .  A
C356        C368   1.461       .  S
C356        C486   1.477       .  S
Co358      Cl369   2.449       .  S
N359        C370   1.351       .  A
C360        C386   1.476       .  S
Co362      Cl369   2.453       .  S
C370        C466   1.476       .  S
C373        H383   1.082       .  S
C373        C374   1.407       .  A
C373        C378   1.397       .  A
C374        C379   1.490       .  S
C374        C375   1.407       .  A
C375        H380   1.082       .  S
C375        C376   1.399       .  A
C376        H381   1.083       .  S
C376        C377   1.404       .  A
C377        C378   1.403       .  A
C378        H382   1.082       .  S
C379        C384   1.408       .  A
C379        C388   1.407       .  A
C384        H389   1.082       .  S
C384        C385   1.399       .  A
C385        H390   1.083       .  S
C385        C386   1.404       .  A
C386        C387   1.402       .  A
C387        H391   1.083       .  S
C387        C388   1.397       .  A
C388        H392   1.082       .  S
C393        H403   1.082       .  S
C393        C394   1.409       .  A
C393        C398   1.400       .  A
C394        C399   1.491       .  S
C394        C395   1.408       .  A
C395        H400   1.083       .  S
C395        C396   1.396       .  A
C396        H401   1.083       .  S
C396        C397   1.402       .  A
C397        C398   1.403       .  A
C398        H402   1.083       .  S
C399        C404   1.408       .  A
C399        C408   1.407       .  A
C404        H409   1.082       .  S
C404        C405   1.399       .  A
C405        H410   1.083       .  S
C405        C406   1.404       .  A
C406        C407   1.402       .  A
C407        H411   1.082       .  S
C407        C408   1.396       .  A
C408        H412   1.083       .  S
C413        H423   1.082       .  S
C413        C414   1.407       .  A
C413        C418   1.396       .  A
C414        C419   1.493       .  S
C414        C415   1.409       .  A
C415        H420   1.082       .  S
C415        C416   1.402       .  A
C416        H421   1.082       .  S
C416        C417   1.405       .  A
C417        C418   1.402       .  A
C418        H422   1.083       .  S
C419        C424   1.407       .  A
C419        C428   1.408       .  A
C424        H429   1.082       .  S
C424        C425   1.397       .  A
C425        H430   1.083       .  S
C425        C426   1.403       .  A
C426        C427   1.405       .  A
C427        H431   1.082       .  S
C427        C428   1.402       .  A
C428        H432   1.082       .  S
C433        H443   1.082       .  S
C433        C434   1.408       .  A
C433        C438   1.397       .  A
C434        C439   1.492       .  S
C434        C435   1.409       .  A
C435        H440   1.082       .  S
C435        C436   1.399       .  A
C436        H441   1.084       .  S
C436        C437   1.402       .  A
C437        C438   1.402       .  A
C438        H442   1.083       .  S
C439        C444   1.408       .  A
C439        C448   1.408       .  A
C444        H449   1.083       .  S
C444        C445   1.397       .  A
C445        H450   1.082       .  S
C445        C446   1.403       .  A
C446        C447   1.404       .  A
C447        H451   1.083       .  S
C447        C448   1.399       .  A
C448        H452   1.082       .  S
C453        H463   1.082       .  S
C453        C454   1.406       .  A
C453        C458   1.398       .  A
C454        C459   1.488       .  S
C454        C455   1.407       .  A
C455        H460   1.082       .  S
C455        C456   1.398       .  A
C456        H461   1.082       .  S
C456        C457   1.403       .  A
C457        C458   1.404       .  A
C458        H462   1.083       .  S
C459        C464   1.407       .  A
C459        C468   1.406       .  A
C464        H469   1.082       .  S
C464        C465   1.399       .  A
C465        H470   1.083       .  S
C465        C466   1.404       .  A
C466        C467   1.403       .  A
C467        H471   1.082       .  S
C467        C468   1.396       .  A
C468        H472   1.083       .  S
C473        H483   1.083       .  S
C473        C474   1.408       .  A
C473        C478   1.397       .  A
C474        C479   1.490       .  S
C474        C475   1.409       .  A
C475        H480   1.082       .  S
C475        C476   1.399       .  A
C476        H481   1.083       .  S
C476        C477   1.403       .  A
C477        C478   1.402       .  A
C478        H482   1.083       .  S
C479        C484   1.408       .  A
C479        C488   1.408       .  A
C484        H489   1.082       .  S
C484        C485   1.397       .  A
C485        H490   1.082       .  S
C485        C486   1.403       .  A
C486        C487   1.403       .  A
C487        H491   1.083       .  S
C487        C488   1.398       .  A
C488        H492   1.082       .  S
C493        H503   1.082       .  S
C493        C494   1.407       .  A
C493        C498   1.398       .  A
C494        C499   1.489       .  S
C494        C495   1.407       .  A
C495        H500   1.083       .  S
C495        C496   1.398       .  A
C496        H501   1.082       .  S
C496        C497   1.404       .  A
C497        C498   1.404       .  A
C498        H502   1.083       .  S
C499        C504   1.407       .  A
C499        C508   1.408       .  A
C504        H509   1.082       .  S
C504        C505   1.397       .  A
C505        H510   1.083       .  S
C505        C506   1.404       .  A
C506        C507   1.403       .  A
C507        H511   1.082       .  S
C507        C508   1.399       .  A
C508        H512   1.082       .  S
C513        H523   1.083       .  S
C513        C514   1.407       .  A
C513        C518   1.397       .  A
C514        C519   1.489       .  S
C514        C515   1.407       .  A
C515        H520   1.082       .  S
C515        C516   1.398       .  A
C516        H521   1.083       .  S
C516        C517   1.404       .  A
C517        C518   1.403       .  A
C518        H522   1.082       .  S
C519        C524   1.408       .  A
C519        C528   1.407       .  A
C524        H529   1.083       .  S
C524        C525   1.398       .  A
C525        H530   1.083       .  S
C525        C526   1.403       .  A
C526        C527   1.404       .  A
C527        H531   1.083       .  S
C527        C528   1.399       .  A
C528        H532   1.082       .  S
C533        N551   1.352       .  A
C533        C570   1.461       .  S
C533        C692   1.481       .  S
N534        N551   1.325       .  A
N534        N556   1.320       .  A
N534       Co571   2.090   1_565  S
C535        N560   1.340       .  A
C535        C573   1.459       .  S
C535        H580   1.081       .  S
H536        C577   1.081       .  S
C537        N561   1.341       .  A
C537        C541   1.462       .  S
C537        H566   1.081       .  S
Co538       N546   2.085   1_545  S
Co538       N554   2.086       .  S
N539        C577   1.340       .  A
N539        N546   1.320       .  A
N539       Co806   2.082   1_564  S
Co540       N805   2.082   1_545  S
Co540       N543   2.086   1_545  S
Co540       N826   2.080       .  S
Co540       N547   2.083       .  S
C541        N579   1.350       .  A
C541        C723   1.478       .  S
N542        N549   1.320       .  A
N542        N572   1.324       .  A
N542       Co575   2.085   1_565  S
N543        N561   1.319       .  A
N543        N579   1.324       .  A
N544        C573   1.350       .  A
N544        N554   1.325       .  A
H545        C570   1.081       .  S
N546        N567   1.324       .  A
N547        N565   1.320       .  A
N547        N552   1.325       .  A
C548        N552   1.349       .  A
C548        C576   1.460       .  S
C548        C743   1.474       .  S
N549        C564   1.341       .  A
N549       Co837   2.084   1_565  S
C550        N578   1.340       .  A
C550        C553   1.462       .  S
C550        H584   1.081       .  S
C553        N574   1.351       .  A
C553        C643   1.479       .  S
N554        N560   1.320       .  A
N555        C581   1.340       .  A
N555        N557   1.320       .  A
N555       Co837   2.085       .  S
N556        C570   1.342       .  A
N557        N585   1.324       .  A
N557       Co575   2.083       .  S
H558        C581   1.081       .  S
H559        C576   1.081       .  S
N560       Co806   2.080   1_554  S
N562        N574   1.324       .  A
N562        N578   1.319       .  A
N562       Co571   2.084       .  S
C563        N567   1.350       .  A
C563        C577   1.462       .  S
C563        C783   1.478       .  S
C564        C583   1.462       .  S
C564        H568   1.081       .  S
N565        C576   1.341       .  A
C569        N585   1.350       .  A
C569        C581   1.461       .  S
C569        C672   1.476       .  S
Co571       N815   2.084   1_544  S
Co571       N821   2.085   1_554  S
Co571      Cl582   2.452   1_554  S
N572        C583   1.350       .  A
C573        C703   1.474       .  S
Co575      Cl848   2.452       .  S
Cl582      Co841   2.452       .  S
C583        C763   1.478       .  S
C586        N604   1.350       .  A
C586        C623   1.462       .  S
C586        C792   1.477       .  S
N587        N604   1.324       .  A
N587        N609   1.320       .  A
N587       Co624   2.084       .  S
C588        N613   1.340       .  A
C588        C626   1.460       .  S
C588        H633   1.081       .  S
H589        C630   1.081       .  S
C590        N614   1.342       .  A
C590        C594   1.462       .  S
C590        H619   1.081       .  S
Co591       N609   2.085       .  S
Co591       N599   2.088       .  S
Co591       N631   2.088       .  S
Co591       N607   2.084       .  S
Co591      Cl635   2.454       .  S
N592        C630   1.342       .  A
N592        N599   1.320       .  A
N592       Co593   2.086       .  S
Co593       N596   2.083       .  S
Co593       N613   2.082       .  S
Co593       N600   2.084       .  S
Co593      Cl635   2.447       .  S
C594        N632   1.349       .  A
C594        C772   1.477       .  S
N595        N602   1.320       .  A
N595        N625   1.325       .  A
N595       Co628   2.085       .  S
N596        N614   1.320       .  A
N596        N632   1.324       .  A
N597        C626   1.350       .  A
N597        N607   1.325       .  A
H598        C623   1.081       .  S
N599        N620   1.324       .  A
N600        N618   1.320       .  A
N600        N605   1.325       .  A
C601        N605   1.350       .  A
C601        C629   1.460       .  S
C601        C663   1.474       .  S
N602        C617   1.339       .  A
N602       Co624   2.081       .  S
C603        N631   1.341       .  A
C603        C606   1.462       .  S
C603        H637   1.081       .  S
C606        N627   1.350       .  A
C606        C712   1.478       .  S
N607        N613   1.319       .  A
N608        C634   1.340       .  A
N608        N610   1.320       .  A
N608       Co624   2.083       .  S
N609        C623   1.341       .  A
N610        N638   1.324       .  A
N610       Co628   2.083       .  S
H611        C634   1.081       .  S
H612        C629   1.081       .  S
N614       Co628   2.085       .  S
N615        N627   1.324       .  A
N615        N631   1.320       .  A
N615       Co624   2.082       .  S
C616        N620   1.351       .  A
C616        C630   1.461       .  S
C616        C683   1.479       .  S
C617        C636   1.460       .  S
C617        H621   1.081       .  S
N618        C629   1.340       .  A
N618       Co628   2.083       .  S
C622        N638   1.350       .  A
C622        C634   1.461       .  S
C622        C752   1.477       .  S
Co624      Cl635   2.449       .  S
N625        C636   1.351       .  A
C626        C652   1.476       .  S
Co628      Cl635   2.453       .  S
C636        C732   1.476       .  S
C639        H649   1.082       .  S
C639        C640   1.407       .  A
C639        C644   1.397       .  A
C640        C645   1.490       .  S
C640        C641   1.407       .  A
C641        H646   1.082       .  S
C641        C642   1.399       .  A
C642        H647   1.083       .  S
C642        C643   1.404       .  A
C643        C644   1.403       .  A
C644        H648   1.082       .  S
C645        C650   1.408       .  A
C645        C654   1.407       .  A
C650        H655   1.082       .  S
C650        C651   1.399       .  A
C651        H656   1.083       .  S
C651        C652   1.404       .  A
C652        C653   1.402       .  A
C653        H657   1.083       .  S
C653        C654   1.397       .  A
C654        H658   1.082       .  S
C659        H669   1.082       .  S
C659        C660   1.409       .  A
C659        C664   1.400       .  A
C660        C665   1.491       .  S
C660        C661   1.408       .  A
C661        H666   1.082       .  S
C661        C662   1.396       .  A
C662        H667   1.082       .  S
C662        C663   1.402       .  A
C663        C664   1.403       .  A
C664        H668   1.083       .  S
C665        C670   1.408       .  A
C665        C674   1.407       .  A
C670        H675   1.082       .  S
C670        C671   1.399       .  A
C671        H676   1.083       .  S
C671        C672   1.404       .  A
C672        C673   1.402       .  A
C673        H677   1.082       .  S
C673        C674   1.396       .  A
C674        H678   1.083       .  S
C679        H689   1.082       .  S
C679        C680   1.407       .  A
C679        C684   1.396       .  A
C680        C685   1.493       .  S
C680        C681   1.409       .  A
C681        H686   1.082       .  S
C681        C682   1.402       .  A
C682        H687   1.081       .  S
C682        C683   1.405       .  A
C683        C684   1.402       .  A
C684        H688   1.083       .  S
C685        C690   1.407       .  A
C685        C694   1.408       .  A
C690        H695   1.082       .  S
C690        C691   1.397       .  A
C691        H696   1.083       .  S
C691        C692   1.403       .  A
C692        C693   1.405       .  A
C693        H697   1.082       .  S
C693        C694   1.402       .  A
C694        H698   1.082       .  S
C699        H709   1.083       .  S
C699        C700   1.408       .  A
C699        C704   1.397       .  A
C700        C705   1.492       .  S
C700        C701   1.409       .  A
C701        H706   1.082       .  S
C701        C702   1.399       .  A
C702        H707   1.084       .  S
C702        C703   1.402       .  A
C703        C704   1.402       .  A
C704        H708   1.083       .  S
C705        C710   1.408       .  A
C705        C714   1.408       .  A
C710        H715   1.082       .  S
C710        C711   1.397       .  A
C711        H716   1.082       .  S
C711        C712   1.403       .  A
C712        C713   1.404       .  A
C713        H717   1.083       .  S
C713        C714   1.399       .  A
C714        H718   1.082       .  S
C719        H729   1.082       .  S
C719        C720   1.406       .  A
C719        C724   1.398       .  A
C720        C725   1.488       .  S
C720        C721   1.407       .  A
C721        H726   1.082       .  S
C721        C722   1.398       .  A
C722        H727   1.082       .  S
C722        C723   1.403       .  A
C723        C724   1.404       .  A
C724        H728   1.083       .  S
C725        C730   1.407       .  A
C725        C734   1.406       .  A
C730        H735   1.082       .  S
C730        C731   1.399       .  A
C731        H736   1.083       .  S
C731        C732   1.404       .  A
C732        C733   1.403       .  A
C733        H737   1.082       .  S
C733        C734   1.396       .  A
C734        H738   1.083       .  S
C739        H749   1.083       .  S
C739        C740   1.408       .  A
C739        C744   1.397       .  A
C740        C745   1.490       .  S
C740        C741   1.409       .  A
C741        H746   1.082       .  S
C741        C742   1.399       .  A
C742        H747   1.083       .  S
C742        C743   1.403       .  A
C743        C744   1.402       .  A
C744        H748   1.083       .  S
C745        C750   1.408       .  A
C745        C754   1.408       .  A
C750        H755   1.083       .  S
C750        C751   1.397       .  A
C751        H756   1.082       .  S
C751        C752   1.403       .  A
C752        C753   1.403       .  A
C753        H757   1.083       .  S
C753        C754   1.398       .  A
C754        H758   1.082       .  S
C759        H769   1.082       .  S
C759        C760   1.407       .  A
C759        C764   1.398       .  A
C760        C765   1.489       .  S
C760        C761   1.407       .  A
C761        H766   1.082       .  S
C761        C762   1.398       .  A
C762        H767   1.082       .  S
C762        C763   1.404       .  A
C763        C764   1.404       .  A
C764        H768   1.083       .  S
C765        C770   1.407       .  A
C765        C774   1.408       .  A
C770        H775   1.082       .  S
C770        C771   1.397       .  A
C771        H776   1.083       .  S
C771        C772   1.404       .  A
C772        C773   1.403       .  A
C773        H777   1.082       .  S
C773        C774   1.399       .  A
C774        H778   1.082       .  S
C779        H789   1.083       .  S
C779        C780   1.407       .  A
C779        C784   1.397       .  A
C780        C785   1.489       .  S
C780        C781   1.407       .  A
C781        H786   1.082       .  S
C781        C782   1.398       .  A
C782        H787   1.083       .  S
C782        C783   1.404       .  A
C783        C784   1.403       .  A
C784        H788   1.082       .  S
C785        C790   1.408       .  A
C785        C794   1.407       .  A
C790        H795   1.083       .  S
C790        C791   1.398       .  A
C791        H796   1.083       .  S
C791        C792   1.403       .  A
C792        C793   1.404       .  A
C793        H797   1.083       .  S
C793        C794   1.398       .  A
C794        H798   1.082       .  S
C799        N817   1.352       .  A
C799        C836   1.461       .  S
C799        C958   1.480       .  S
N800        N817   1.325       .  A
N800        N822   1.320       .  A
N800       Co837   2.090   1_565  S
C801        N826   1.340       .  A
C801        C839   1.459       .  S
C801        H846   1.081       .  S
H802        C843   1.081       .  S
C803        N827   1.341       .  A
C803        C807   1.462       .  S
C803        H832   1.081       .  S
Co804       N812   2.085   1_545  S
Co804       N820   2.086       .  S
N805        C843   1.340       .  A
N805        N812   1.320       .  A
Co806       N809   2.086   1_545  S
Co806       N813   2.083       .  S
C807        N845   1.350       .  A
C807        C989   1.478       .  S
N808        N815   1.320       .  A
N808        N838   1.324       .  A
N808       Co841   2.085   1_565  S
N809        N827   1.319       .  A
N809        N845   1.324       .  A
N810        C839   1.350       .  A
N810        N820   1.325       .  A
H811        C836   1.081       .  S
N812        N833   1.324       .  A
N813        N831   1.320       .  A
N813        N818   1.325       .  A
C814        N818   1.349       .  A
C814        C842   1.460       .  S
C814       C1009   1.474       .  S
N815        C830   1.341       .  A
C816        N844   1.340       .  A
C816        C819   1.462       .  S
C816        H850   1.081       .  S
C819        N840   1.351       .  A
C819        C909   1.479       .  S
N820        N826   1.320       .  A
N821        C847   1.340       .  A
N821        N823   1.320       .  A
N822        C836   1.342       .  A
N823        N851   1.325       .  A
N823       Co841   2.083       .  S
H824        C847   1.081       .  S
H825        C842   1.082       .  S
N828        N840   1.324       .  A
N828        N844   1.319       .  A
N828       Co837   2.084       .  S
C829        N833   1.350       .  A
C829        C843   1.462       .  S
C829       C1049   1.478       .  S
C830        C849   1.462       .  S
C830        H834   1.081       .  S
N831        C842   1.341       .  A
C835        N851   1.350       .  A
C835        C847   1.461       .  S
C835        C938   1.476       .  S
Co837      Cl848   2.452       .  S
N838        C849   1.350       .  A
C839        C969   1.474       .  S
C849       C1029   1.478       .  S
C852        N870   1.350       .  A
C852        C889   1.462       .  S
C852       C1058   1.477       .  S
N853        N870   1.324       .  A
N853        N875   1.320       .  A
N853       Co890   2.084       .  S
C854        N879   1.340       .  A
C854        C892   1.460       .  S
C854        H899   1.081       .  S
H855        C896   1.081       .  S
C856        N880   1.342       .  A
C856        C860   1.462       .  S
C856        H885   1.081       .  S
Co857       N875   2.085       .  S
Co857       N865   2.088       .  S
Co857       N897   2.088       .  S
Co857       N873   2.084       .  S
Co857      Cl901   2.454       .  S
N858        C896   1.342       .  A
N858        N865   1.320       .  A
N858       Co859   2.085       .  S
Co859       N862   2.083       .  S
Co859       N879   2.082       .  S
Co859       N866   2.084       .  S
Co859      Cl901   2.447       .  S
C860        N898   1.349       .  A
C860       C1038   1.477       .  S
N861        N868   1.320       .  A
N861        N891   1.325       .  A
N861       Co894   2.085       .  S
N862        N880   1.320       .  A
N862        N898   1.324       .  A
N863        C892   1.350       .  A
N863        N873   1.325       .  A
H864        C889   1.081       .  S
N865        N886   1.324       .  A
N866        N884   1.320       .  A
N866        N871   1.325       .  A
C867        N871   1.350       .  A
C867        C895   1.460       .  S
C867        C929   1.474       .  S
N868        C883   1.339       .  A
N868       Co890   2.081       .  S
C869        N897   1.341       .  A
C869        C872   1.462       .  S
C869        H903   1.081       .  S
C872        N893   1.350       .  A
C872        C978   1.478       .  S
N873        N879   1.319       .  A
N874        C900   1.340       .  A
N874        N876   1.319       .  A
N874       Co890   2.083       .  S
N875        C889   1.341       .  A
N876        N904   1.324       .  A
N876       Co894   2.083       .  S
H877        C900   1.081       .  S
H878        C895   1.081       .  S
N880       Co894   2.085       .  S
N881        N893   1.324       .  A
N881        N897   1.320       .  A
N881       Co890   2.082       .  S
C882        N886   1.351       .  A
C882        C896   1.461       .  S
C882        C949   1.479       .  S
C883        C902   1.460       .  S
C883        H887   1.081       .  S
N884        C895   1.340       .  A
N884       Co894   2.083       .  S
C888        N904   1.350       .  A
C888        C900   1.461       .  S
C888       C1018   1.477       .  S
Co890      Cl901   2.449       .  S
N891        C902   1.351       .  A
C892        C918   1.476       .  S
Co894      Cl901   2.453       .  S
C902        C998   1.476       .  S
C905        H915   1.082       .  S
C905        C906   1.407       .  A
C905        C910   1.397       .  A
C906        C911   1.490       .  S
C906        C907   1.407       .  A
C907        H912   1.082       .  S
C907        C908   1.399       .  A
C908        H913   1.083       .  S
C908        C909   1.404       .  A
C909        C910   1.403       .  A
C910        H914   1.082       .  S
C911        C916   1.408       .  A
C911        C920   1.407       .  A
C916        H921   1.082       .  S
C916        C917   1.399       .  A
C917        H922   1.083       .  S
C917        C918   1.404       .  A
C918        C919   1.402       .  A
C919        H923   1.083       .  S
C919        C920   1.397       .  A
C920        H924   1.083       .  S
C925        H935   1.082       .  S
C925        C926   1.409       .  A
C925        C930   1.400       .  A
C926        C931   1.491       .  S
C926        C927   1.408       .  A
C927        H932   1.083       .  S
C927        C928   1.396       .  A
C928        H933   1.082       .  S
C928        C929   1.402       .  A
C929        C930   1.403       .  A
C930        H934   1.083       .  S
C931        C936   1.408       .  A
C931        C940   1.407       .  A
C936        H941   1.082       .  S
C936        C937   1.399       .  A
C937        H942   1.083       .  S
C937        C938   1.404       .  A
C938        C939   1.402       .  A
C939        H943   1.082       .  S
C939        C940   1.396       .  A
C940        H944   1.083       .  S
C945        H955   1.083       .  S
C945        C946   1.407       .  A
C945        C950   1.396       .  A
C946        C951   1.493       .  S
C946        C947   1.409       .  A
C947        H952   1.082       .  S
C947        C948   1.402       .  A
C948        H953   1.082       .  S
C948        C949   1.405       .  A
C949        C950   1.402       .  A
C950        H954   1.083       .  S
C951        C956   1.407       .  A
C951        C960   1.408       .  A
C956        H961   1.082       .  S
C956        C957   1.397       .  A
C957        H962   1.083       .  S
C957        C958   1.403       .  A
C958        C959   1.405       .  A
C959        H963   1.082       .  S
C959        C960   1.402       .  A
C960        H964   1.082       .  S
C965        H975   1.083       .  S
C965        C966   1.408       .  A
C965        C970   1.397       .  A
C966        C971   1.492       .  S
C966        C967   1.409       .  A
C967        H972   1.082       .  S
C967        C968   1.399       .  A
C968        H973   1.084       .  S
C968        C969   1.402       .  A
C969        C970   1.402       .  A
C970        H974   1.083       .  S
C971        C976   1.408       .  A
C971        C980   1.408       .  A
C976        H981   1.083       .  S
C976        C977   1.397       .  A
C977        H982   1.082       .  S
C977        C978   1.403       .  A
C978        C979   1.404       .  A
C979        H983   1.083       .  S
C979        C980   1.399       .  A
C980        H984   1.082       .  S
C985        H995   1.082       .  S
C985        C986   1.406       .  A
C985        C990   1.398       .  A
C986        C991   1.488       .  S
C986        C987   1.407       .  A
C987        H992   1.083       .  S
C987        C988   1.398       .  A
C988        H993   1.082       .  S
C988        C989   1.403       .  A
C989        C990   1.404       .  A
C990        H994   1.083       .  S
C991        C996   1.407       .  A
C991       C1000   1.406       .  A
C996       H1001   1.082       .  S
C996        C997   1.399       .  A
C997       H1002   1.082       .  S
C997        C998   1.404       .  A
C998        C999   1.403       .  A
C999       H1003   1.082       .  S
C999       C1000   1.396       .  A
C1000      H1004   1.083       .  S
C1005      H1015   1.083       .  S
C1005      C1006   1.408       .  A
C1005      C1010   1.397       .  A
C1006      C1011   1.490       .  S
C1006      C1007   1.409       .  A
C1007      H1012   1.082       .  S
C1007      C1008   1.399       .  A
C1008      H1013   1.083       .  S
C1008      C1009   1.403       .  A
C1009      C1010   1.402       .  A
C1010      H1014   1.083       .  S
C1011      C1016   1.408       .  A
C1011      C1020   1.408       .  A
C1016      H1021   1.082       .  S
C1016      C1017   1.397       .  A
C1017      H1022   1.082       .  S
C1017      C1018   1.403       .  A
C1018      C1019   1.403       .  A
C1019      H1023   1.083       .  S
C1019      C1020   1.398       .  A
C1020      H1024   1.082       .  S
C1025      H1035   1.082       .  S
C1025      C1026   1.407       .  A
C1025      C1030   1.398       .  A
C1026      C1031   1.489       .  S
C1026      C1027   1.407       .  A
C1027      H1032   1.082       .  S
C1027      C1028   1.398       .  A
C1028      H1033   1.082       .  S
C1028      C1029   1.404       .  A
C1029      C1030   1.404       .  A
C1030      H1034   1.083       .  S
C1031      C1036   1.407       .  A
C1031      C1040   1.408       .  A
C1036      H1041   1.082       .  S
C1036      C1037   1.397       .  A
C1037      H1042   1.083       .  S
C1037      C1038   1.404       .  A
C1038      C1039   1.403       .  A
C1039      H1043   1.082       .  S
C1039      C1040   1.399       .  A
C1040      H1044   1.082       .  S
C1045      H1055   1.083       .  S
C1045      C1046   1.407       .  A
C1045      C1050   1.397       .  A
C1046      C1051   1.489       .  S
C1046      C1047   1.407       .  A
C1047      H1052   1.082       .  S
C1047      C1048   1.398       .  A
C1048      H1053   1.083       .  S
C1048      C1049   1.404       .  A
C1049      C1050   1.403       .  A
C1050      H1054   1.082       .  S
C1051      C1056   1.408       .  A
C1051      C1060   1.407       .  A
C1056      H1061   1.083       .  S
C1056      C1057   1.398       .  A
C1057      H1062   1.083       .  S
C1057      C1058   1.403       .  A
C1058      C1059   1.404       .  A
C1059      H1063   1.083       .  S
C1059      C1060   1.398       .  A
C1060      H1064   1.082       .  S
