geometry optimzed in LAMMPS
_audit_creation_date              2020-11-30 
_audit_creation_method            'lammps2cif' 
_symmetry_space_group_name_H-M    'P1' 
_symmetry_Int_Tables_number       1 
_symmetry_cell_setting            triclinic 
loop_ 
_symmetry_equiv_pos_as_xyz 
  x,y,z 
_cell_length_a                    32.73688748 
_cell_length_b                    35.568595278777636 
_cell_length_c                    22.932887344743524 
_cell_angle_alpha                 89.97239238153412 
_cell_angle_beta                  90.01125661611353 
_cell_angle_gamma                 90.0012728960652 
loop_ 
_atom_site_label 
_atom_site_type_symbol 
_atom_site_fract_x 
_atom_site_fract_y 
_atom_site_fract_z 
_atom_site_charge 
C1          C  0.50003601  0.46651124  0.25000142     0.01600
C2          C  0.00011243  0.52045206  0.08306623     0.01600
O3          O  0.35028279  0.20380077  0.02633298    -0.53700
C4          C  0.37847649  0.22537733  0.15090360     0.78900
O5          O  0.35582896  0.11138068  0.03530613    -0.54900
C6          C  0.37965809  0.22321751  0.00705695     0.78900
C7          C  0.47779025  0.14283531  0.08317274     0.81300
Cd8        Cd  0.39418434  0.16260952  0.08121315     1.37500
O9          O  0.34930934  0.20618742  0.13051087    -0.53700
O10         O  0.45757064  0.14584273  0.13021836    -0.52500
C11         C  0.34265449  0.09783513  0.08284355     0.81200
O12         O  0.45811200  0.14425705  0.03547196    -0.54900
O13         O  0.41366556  0.21057613  0.15086470    -0.52900
O14         O  0.41511083  0.20905797  0.00968174    -0.53300
O15         O  0.35482265  0.11296585  0.12976883    -0.52500
O16         O  0.40095984  0.28211419  0.19387486    -0.53700
C17         C  0.37182683  0.26132778  0.31727819     0.78900
O18         O  0.39494521  0.37502575  0.20084803    -0.54900
C19         C  0.37173604  0.26302315  0.17343118     0.78900
C20         C  0.27238189  0.34337305  0.24857474     0.81300
Cd21       Cd  0.35626412  0.32382374  0.24671825     1.37500
O22         O  0.40098745  0.28144318  0.29906745    -0.53700
O23         O  0.29268041  0.34046147  0.29558482    -0.52500
C24         C  0.40766842  0.38878590  0.24849329     0.81200
O25         O  0.29205095  0.34191411  0.20087691    -0.54900
O26         O  0.33618647  0.27502969  0.31458419    -0.53300
O27         O  0.33645908  0.27764028  0.17436082    -0.53300
O28         O  0.39510068  0.37379465  0.29532416    -0.52500
O29         O  0.15042447  0.20494741  0.03142845    -0.53700
C30         C  0.12124257  0.22472934  0.15484379     0.78900
O31         O  0.04257186  0.14456775  0.03637120    -0.54900
C32         C  0.12113770  0.22397708  0.01100688     0.78900
C33         C  0.15760531  0.09785763  0.08386525     0.81300
Cd34       Cd  0.10606582  0.16263938  0.08358058     1.37500
O35         O  0.15050587  0.20529652  0.13529666    -0.53700
O36         O  0.14475459  0.11204790  0.03659746    -0.52500
C37         C  0.02244145  0.14285757  0.08364611     0.81200
O38         O  0.14511005  0.11234659  0.13109857    -0.54900
O39         O  0.08587212  0.21032542  0.15341893    -0.53300
O40         O  0.08590679  0.20926316  0.01194175    -0.53300
O41         O  0.04220808  0.14561174  0.13113703    -0.52500
O42         O  0.09892070  0.28172203  0.19737001    -0.53700
C43         C  0.12822937  0.26222581  0.32163173     0.78900
O44         O  0.20740634  0.34169411  0.20197955    -0.54900
C45         C  0.12810871  0.26231854  0.17754530     0.78900
C46         C  0.09247065  0.38889183  0.24998230     0.81300
Cd47       Cd  0.14376021  0.32387465  0.24958077     1.37500
O48         O  0.09904048  0.28209916  0.30287263    -0.53700
O49         O  0.10476630  0.37440560  0.20264426    -0.52500
C50         C  0.22767269  0.34338746  0.24915408     0.81200
O51         O  0.10543598  0.37461133  0.29713888    -0.54900
O52         O  0.16382409  0.27604830  0.31904874    -0.53300
O53         O  0.16349228  0.27668242  0.17887305    -0.53300
O54         O  0.20796466  0.34073479  0.29669939    -0.52500
C55         C  0.25001919  0.96619812  0.25013387     0.01600
C56         C  0.25012420  0.02037318  0.08347656     0.01600
O57         O  0.40009706  0.70390892  0.14097537    -0.53700
C58         C  0.37142030  0.72527085  0.01584059     0.78900
O59         O  0.39441622  0.61139427  0.13192106    -0.54900
C60         C  0.37081615  0.72374013  0.15950869     0.78900
C61         C  0.27243827  0.64273997  0.08450010     0.81300
Cd62       Cd  0.35598385  0.66275381  0.08616491     1.37500
O63         O  0.40064189  0.70603651  0.03601131    -0.53700
O64         O  0.29264261  0.64573281  0.03743992    -0.52500
C65         C  0.40760946  0.59800397  0.08429318     0.81200
O66         O  0.29212214  0.64426226  0.13219411    -0.54900
O67         O  0.33619043  0.71055904  0.01631188    -0.53300
O68         O  0.33523539  0.70989134  0.15663723    -0.53300
O69         O  0.39544541  0.61329555  0.03747128    -0.52500
O70         O  0.34960444  0.78348753  0.30823895    -0.53700
C71         C  0.37791833  0.76133251  0.18207117     0.78900
O72         O  0.35571122  0.87501929  0.29842229    -0.54900
C73         C  0.37875410  0.76320195  0.32604819     0.78900
C74         C  0.47765783  0.84390597  0.25040904     0.81300
Cd75       Cd  0.39397116  0.82385220  0.25217280     1.37500
O76         O  0.34882661  0.78120589  0.20107458    -0.53700
O77         O  0.45735932  0.84115304  0.20338487    -0.52500
C78         C  0.34248870  0.88864340  0.25094444     0.81200
O79         O  0.45802099  0.84217538  0.29811357    -0.54900
O80         O  0.41343743  0.77538234  0.18355460    -0.53300
O81         O  0.41455453  0.77640378  0.32197217    -0.53300
O82         O  0.35460596  0.87358564  0.20393149    -0.52500
O83         O  0.09956658  0.70494677  0.13569355    -0.53700
C84         C  0.12934014  0.72455434  0.01159205     0.78900
O85         O  0.20759182  0.64449988  0.13117987    -0.54900
C86         C  0.12876466  0.72442118  0.15535054     0.78900
C87         C  0.09263597  0.59798801  0.08312070     0.81300
Cd88       Cd  0.14423802  0.66275502  0.08356955     1.37500
O89         O  0.10003867  0.70478800  0.03026629    -0.53700
O90         O  0.10544792  0.61209290  0.13046651    -0.52500
C91         C  0.22778668  0.64272776  0.08396536     0.81200
O92         O  0.10518575  0.61256436  0.03595916    -0.54900
O93         O  0.16486177  0.71055770  0.01413586    -0.53300
O94         O  0.16415255  0.71006272  0.15411661    -0.53300
O95         O  0.20808916  0.64545176  0.03641092    -0.52500
O96         O  0.15041314  0.78262158  0.30387656    -0.53700
C97         C  0.12183518  0.76206017  0.17780155     0.78900
O98         O  0.04260137  0.84189884  0.29696520    -0.54900
C99         C  0.12125423  0.76230932  0.32156599     0.78900
C100        C  0.15755458  0.88862891  0.24935327     0.81300
Cd101      Cd  0.10602788  0.82384338  0.24921132     1.37500
O102        O  0.15098428  0.78151845  0.19764472    -0.53700
O103        O  0.14467794  0.87432238  0.29652411    -0.52500
C104        C  0.02234829  0.84388371  0.24980524     0.81200
O105        O  0.14509727  0.87424178  0.20200270    -0.54900
O106        O  0.08645968  0.77646016  0.17872941    -0.53300
O107        O  0.08549127  0.77563419  0.31783733    -0.53300
O108        O  0.04202496  0.84134960  0.20221962    -0.52500
C109        C  0.28598448  0.94154909  0.25031432    -0.09200
C110        C  0.31339049  0.91883896  0.25052031    -0.10700
C111        C  0.21403569  0.94156392  0.24996646    -0.09200
C112        C  0.18663816  0.91884198  0.24961670    -0.10700
C113        C  0.24995344  0.98748045  0.30788719    -0.09200
C114        C  0.25011234  0.99924061  0.02560140    -0.10700
C115        C  0.25015000  0.99910671  0.14122654    -0.09200
C116        C  0.25012296  0.98736789  0.19229368    -0.10700
C117        C  0.18671996  0.06768281  0.08383660    -0.09200
C118        C  0.21414999  0.04500244  0.08362585    -0.10700
C119        C  0.28610015  0.04499580  0.08352561    -0.09200
C120        C  0.31353810  0.06766669  0.08339806    -0.10700
C121        C  0.03609428  0.54509628  0.08293324    -0.09200
C122        C  0.06351379  0.56780068  0.08294892    -0.10700
C123        C  0.46413201  0.54509983  0.08307353    -0.09200
C124        C  0.43672198  0.56781235  0.08348768    -0.10700
C125        C  0.06343759  0.41915862  0.25018176    -0.09200
C126        C  0.03603846  0.44188704  0.25019450    -0.10700
C127        C  0.46407174  0.44182443  0.24987687    -0.09200
C128        C  0.43670714  0.41905521  0.24935567    -0.10700
C129        C  0.00008855  0.49911754  0.02535680    -0.09200
C130        C  0.49995408  0.48784521  0.30773269    -0.10700
C131        C  0.00014336  0.49932737  0.14097816    -0.09200
C132        C  0.00011514  0.48764502  0.19209355    -0.10700
C133        C  0.50028053  0.46673119  0.58320789     0.01600
C134        C  0.00015540  0.52103462  0.41650676     0.01600
O135        O  0.34978615  0.20390051  0.35862317    -0.53700
C136        C  0.37785455  0.22582041  0.48425592     0.78900
O137        O  0.35579523  0.11188886  0.36801685    -0.54900
C138        C  0.37902978  0.22386453  0.34028191     0.78900
C139        C  0.47783163  0.14359397  0.41607208     0.81300
Cd140      Cd  0.39399953  0.16322498  0.41420746     1.37500
O141        O  0.34876060  0.20631478  0.46436078    -0.53700
O142        O  0.45749752  0.14618759  0.46307856    -0.52500
C143        C  0.34263112  0.09825128  0.41551092     0.81200
O144        O  0.45820861  0.14536886  0.36835000    -0.54900
O145        O  0.41321675  0.21140679  0.48351386    -0.52900
O146        O  0.41470132  0.21028237  0.34374200    -0.53300
O147        O  0.35476283  0.11335962  0.46247743    -0.52500
O148        O  0.40030865  0.28296809  0.52590816    -0.53700
C149        C  0.37251746  0.26157323  0.65084800     0.78900
O150        O  0.39455339  0.37562556  0.53487562    -0.54900
C151        C  0.37092986  0.26338382  0.50705238     0.78900
C152        C  0.27265907  0.34364617  0.58316341     0.81300
Cd153      Cd  0.35645048  0.32417262  0.58093727     1.37500
O154        O  0.40162085  0.28061644  0.62993013    -0.53700
O155        O  0.29294206  0.34052166  0.63015070    -0.52500
C156        C  0.40783119  0.38913639  0.58237021     0.81200
O157        O  0.29231252  0.34241224  0.53543797    -0.54900
O158        O  0.33739473  0.27650472  0.65124045    -0.53300
O159        O  0.33543868  0.27742861  0.50989947    -0.53300
O160        O  0.39583266  0.37389421  0.62931158    -0.52500
O161        O  0.15042576  0.20476339  0.36276615    -0.53700
C162        C  0.12244957  0.22512282  0.48848583     0.78900
O163        O  0.04278006  0.14562623  0.36956716    -0.54900
C164        C  0.12112015  0.22476626  0.34470590     0.78900
C165        C  0.15776045  0.09831110  0.41727709     0.81300
Cd166      Cd  0.10635578  0.16326062  0.41728540     1.37500
O167        O  0.15154974  0.20605640  0.46765009    -0.53700
O168        O  0.14501165  0.11268448  0.37007929    -0.52500
C169        C  0.02252915  0.14362196  0.41671416     0.81200
O170        O  0.14522261  0.11268945  0.46457704    -0.54900
O171        O  0.08725864  0.21031607  0.48851388    -0.53300
O172        O  0.08549020  0.21110374  0.34813606    -0.53300
O173        O  0.04222984  0.14603178  0.46430897    -0.52500
O174        O  0.09988533  0.28201266  0.53084020    -0.53700
C175        C  0.12855933  0.26219334  0.65474555     0.78900
O176        O  0.20780704  0.34217112  0.53641227    -0.54900
C177        C  0.12920314  0.26275543  0.51106096     0.78900
C178        C  0.09274457  0.38913819  0.58355331     0.81300
Cd179      Cd  0.14416714  0.32420152  0.58345257     1.37500
O180        O  0.09936712  0.28149523  0.63462922    -0.53700
O181        O  0.10569520  0.37499873  0.53632904    -0.52500
C182        C  0.22798020  0.34365338  0.58367819     0.81200
O183        O  0.10510286  0.37454705  0.63081378    -0.54900
O184        O  0.16387057  0.27673709  0.65389432    -0.53300
O185        O  0.16450700  0.27729344  0.51241715    -0.53300
O186        O  0.20821173  0.34079084  0.63114984    -0.52500
C187        C  0.25034836  0.96640992  0.58337901     0.01600
C188        C  0.25016270  0.02063445  0.41664164     0.01600
O189        O  0.40093762  0.70516131  0.47285737    -0.53700
C190        C  0.37134547  0.72582442  0.34923553     0.78900
O191        O  0.39479401  0.61225404  0.46598860    -0.54900
C192        C  0.37178140  0.72435422  0.49324531     0.78900
C193        C  0.27247260  0.64350611  0.41807790     0.81300
Cd194      Cd  0.35611544  0.66347014  0.42013846     1.37500
O195        O  0.40049773  0.70531201  0.36641979    -0.53700
O196        O  0.29275549  0.64666151  0.37110878    -0.52500
C197        C  0.40767173  0.59865489  0.41831675     0.81200
O198        O  0.29210642  0.64483291  0.46582409    -0.54900
O199        O  0.33555061  0.71260722  0.35315049    -0.53300
O200        O  0.33645070  0.70985499  0.49225841    -0.53300
O201        O  0.39518371  0.61374218  0.37150929    -0.52500
O202        O  0.35028110  0.78275787  0.64107881    -0.53700
C203        C  0.37867018  0.76192154  0.51598016     0.78900
O204        O  0.35590415  0.87535416  0.63258145    -0.54900
C205        C  0.37957874  0.76295910  0.65967785     0.78900
C206        C  0.47799312  0.84408211  0.58500405     0.81300
Cd207      Cd  0.39439476  0.82414829  0.58662262     1.37500
O208        O  0.34950596  0.78129891  0.53595229    -0.53700
O209        O  0.45778482  0.84108453  0.53794185    -0.52500
C210        C  0.34287660  0.88893213  0.58495803     0.81200
O211        O  0.45830203  0.84257993  0.63268634    -0.54900
O212        O  0.41400311  0.77641295  0.51677926    -0.53300
O213        O  0.41513108  0.77687927  0.65694907    -0.53300
O214        O  0.35518245  0.87382422  0.53810240    -0.52500
O215        O  0.09936249  0.70541470  0.46971029    -0.53700
C216        C  0.12863147  0.72490363  0.34465596     0.78900
O217        O  0.20752346  0.64507782  0.46459134    -0.54900
C218        C  0.12852249  0.72515981  0.48883262     0.78900
C219        C  0.09271411  0.59856301  0.41655619     0.81300
Cd220      Cd  0.14413904  0.66345804  0.41695852     1.37500
O221        O  0.09951067  0.70466856  0.36268686    -0.53700
O222        O  0.10514212  0.61295468  0.46390872    -0.52500
C223        C  0.22779859  0.64349927  0.41742825     0.81200
O224        O  0.10560972  0.61288968  0.36939658    -0.54900
O225        O  0.16438503  0.71150814  0.34801820    -0.53300
O226        O  0.16405067  0.71116468  0.48677656    -0.53300
O227        O  0.20815249  0.64639152  0.36985749    -0.52500
O228        O  0.15086001  0.78185943  0.63620892    -0.53700
C229        C  0.12143992  0.76264958  0.51178062     0.78900
O230        O  0.04287268  0.84235375  0.63169273    -0.54900
C231        C  0.12163884  0.76228519  0.65556592     0.78900
C232        C  0.15780421  0.88892648  0.58378396     0.81300
Cd233      Cd  0.10625056  0.82415948  0.58405055     1.37500
O234        O  0.15068026  0.78243303  0.53058964    -0.53700
O235        O  0.14511636  0.87469101  0.63112135    -0.52500
C236        C  0.02265374  0.84410714  0.58448180     0.81200
O237        O  0.14512745  0.87449435  0.53660400    -0.54900
O238        O  0.08587824  0.77655745  0.51431983    -0.53300
O239        O  0.08622640  0.77657989  0.65412361    -0.53300
O240        O  0.04234055  0.84140132  0.53693123    -0.52500
C241        C  0.28633693  0.94179267  0.58358623    -0.09200
C242        C  0.31377065  0.91911517  0.58415050    -0.10700
C243        C  0.21437669  0.94176943  0.58342717    -0.09200
C244        C  0.18693862  0.91909230  0.58360012    -0.10700
C245        C  0.25031502  0.98762629  0.64114121    -0.09200
C246        C  0.24999929  0.99935870  0.35887952    -0.10700
C247        C  0.25030777  0.99941707  0.47447840    -0.09200
C248        C  0.25036193  0.98761210  0.52552684    -0.10700
C249        C  0.18680637  0.06805002  0.41711405    -0.09200
C250        C  0.21418735  0.04530016  0.41684710    -0.10700
C251        C  0.28616065  0.04527577  0.41636720    -0.09200
C252        C  0.31356473  0.06800445  0.41602246    -0.10700
C253        C  0.03617619  0.54564969  0.41632513    -0.09200
C254        C  0.06361064  0.56834784  0.41634668    -0.10700
C255        C  0.46419516  0.54572754  0.41676894    -0.09200
C256        C  0.43679285  0.56845641  0.41739463    -0.10700
C257        C  0.06366688  0.41936480  0.58345550    -0.09200
C258        C  0.03625706  0.44207932  0.58328008    -0.10700
C259        C  0.46429040  0.44209811  0.58310379    -0.09200
C260        C  0.43688180  0.41938268  0.58287912    -0.10700
C261        C  0.99999179  0.49976800  0.35871150    -0.09200
C262        C  0.50025544  0.48788131  0.64107079    -0.10700
C263        C  0.00027370  0.49980392  0.47434362    -0.09200
C264        C  0.00031458  0.48799793  0.52539928    -0.10700
C265        C  0.50025632  0.46592433  0.91662592     0.01600
C266        C  0.00036498  0.52056714  0.75015900     0.01600
O267        O  0.34991524  0.20481067  0.69362308    -0.53700
C268        C  0.37868850  0.22521049  0.81712715     0.78900
O269        O  0.35555400  0.11190802  0.70054648    -0.54900
C270        C  0.37920965  0.22391217  0.67339208     0.78900
C271        C  0.47804772  0.14305011  0.74847274     0.81300
Cd272      Cd  0.39435013  0.16290698  0.74651389     1.37500
O273        O  0.34956070  0.20500524  0.79905265    -0.53700
O274        O  0.45778736  0.14606922  0.79548267    -0.52500
C275        C  0.34285176  0.09812083  0.74820026     0.81200
O276        O  0.45838230  0.14451171  0.70076016    -0.54900
O277        O  0.41438234  0.21163754  0.81433077    -0.52900
O278        O  0.41446554  0.20926016  0.67446673    -0.53300
O279        O  0.35547896  0.11302162  0.79504826    -0.52500
O280        O  0.40062857  0.28277912  0.85798083    -0.53700
C281        C  0.37278438  0.26073425  0.98403792     0.78900
O282        O  0.39483409  0.37460690  0.86789928    -0.54900
C283        C  0.37139448  0.26265070  0.84004555     0.78900
C284        C  0.27265731  0.34284768  0.91532810     0.81300
Cd285      Cd  0.35649601  0.32326921  0.91384788     1.37500
O286        O  0.40183701  0.28002051  0.96353274    -0.53700
O287        O  0.29293229  0.34017751  0.96238781    -0.52500
C288        C  0.40781976  0.38826476  0.91546525     0.81200
O289        O  0.29233423  0.34112908  0.86765686    -0.54900
O290        O  0.33750356  0.27533351  0.98373571    -0.53300
O291        O  0.33566417  0.27605368  0.84382258    -0.53300
O292        O  0.39553177  0.37315909  0.96236785    -0.52500
O293        O  0.15099275  0.20509345  0.69684917    -0.53700
C294        C  0.12220311  0.22431352  0.82133304     0.78900
O295        O  0.04294858  0.14467571  0.70182642    -0.54900
C296        C  0.12172541  0.22457101  0.67738439     0.78900
C297        C  0.15788675  0.09800806  0.74959736     0.81300
Cd298      Cd  0.10645583  0.16283214  0.74927312     1.37500
O299        O  0.15131309  0.20416568  0.80306724    -0.53700
O300        O  0.14558116  0.11251507  0.70224557    -0.52500
C301        C  0.02273062  0.14300687  0.74903320     0.81200
O302        O  0.14486019  0.11218539  0.79676333    -0.54900
O303        O  0.08648259  0.21080989  0.81831696    -0.53300
O304        O  0.08634248  0.21022609  0.67895330    -0.53300
O305        O  0.04245108  0.14574815  0.79656302    -0.52500
O306        O  0.10024577  0.28213147  0.86140209    -0.53700
C307        C  0.12784101  0.26154982  0.98814865     0.78900
O308        O  0.20767914  0.34094514  0.86877827    -0.54900
C309        C  0.12951267  0.26174549  0.84429627     0.78900
C310        C  0.09267068  0.38821655  0.91705750     0.81300
Cd311      Cd  0.14413864  0.32329068  0.91672723     1.37500
O312        O  0.09881068  0.28034480  0.96652171    -0.53700
O313        O  0.10530731  0.37390560  0.86977800    -0.52500
C314        C  0.22796322  0.34286877  0.91591818     0.81200
O315        O  0.10535852  0.37379403  0.96427208    -0.54900
O316        O  0.16292427  0.27657541  0.98873012    -0.53300
O317        O  0.16526998  0.27500773  0.84857075    -0.53300
O318        O  0.20829239  0.34043817  0.96352155    -0.52500
C319        C  0.25032438  0.96629845  0.91673083     0.01600
C320        C  0.25041905  0.02054012  0.74998036     0.01600
O321        O  0.40069634  0.70354566  0.80865008    -0.53700
C322        C  0.37252756  0.72535789  0.68227086     0.78900
O323        O  0.39472253  0.61172489  0.79886777    -0.54900
C324        C  0.37152485  0.72388181  0.82621569     0.78900
C325        C  0.27277010  0.64290345  0.75080906     0.81300
Cd326      Cd  0.35644646  0.66299030  0.75264650     1.37500
O327        O  0.40162040  0.70561180  0.70163006    -0.53700
O328        O  0.29305475  0.64575085  0.70379543    -0.52500
C329        C  0.40791180  0.59815096  0.75135924     0.81200
O330        O  0.29241446  0.64457682  0.79852216    -0.54900
O331        O  0.33705014  0.71120088  0.68351040    -0.53300
O332        O  0.33573731  0.71066117  0.82208766    -0.53300
O333        O  0.39579392  0.61329358  0.70438800    -0.52500
O334        O  0.34907733  0.78182560  0.97203516    -0.53700
C335        C  0.37892445  0.76131469  0.84921896     0.78900
O336        O  0.35568547  0.87499021  0.96607304    -0.54900
C337        C  0.37818503  0.76289051  0.99316673     0.78900
C338        C  0.47798142  0.84342031  0.91783759     0.81300
Cd339      Cd  0.39415423  0.82373075  0.92003367     1.37500
O340        O  0.34976553  0.78189894  0.86615428    -0.53700
O341        O  0.45764013  0.84031710  0.87090270    -0.52500
C342        C  0.34278221  0.88868845  0.91846097     0.81200
O343        O  0.45836900  0.84209717  0.96559375    -0.54900
O344        O  0.41472507  0.77449407  0.85327995    -0.53300
O345        O  0.41339133  0.77766698  0.99290251    -0.53300
O346        O  0.35517450  0.87364745  0.87159711    -0.52500
O347        O  0.10025888  0.70440881  0.80435762    -0.53700
C348        C  0.12856845  0.72463685  0.67801778     0.78900
O349        O  0.20784892  0.64483094  0.79737503    -0.54900
C350        C  0.12946262  0.72478731  0.82171708     0.78900
C351        C  0.09278729  0.59823796  0.74984728     0.81300
Cd352      Cd  0.14442881  0.66300096  0.74969046     1.37500
O353        O  0.09943201  0.70520545  0.69797118    -0.53700
O354        O  0.10567071  0.61250417  0.79703754    -0.52500
C355        C  0.22808135  0.64289753  0.75020670     0.81200
O356        O  0.10526916  0.61266022  0.70252441    -0.54900
O357        O  0.16394356  0.71022957  0.67891779    -0.53300
O358        O  0.16520896  0.71145573  0.81786767    -0.53300
O359        O  0.20838518  0.64547433  0.70262751    -0.52500
O360        O  0.15147054  0.78172474  0.96925781    -0.53700
C361        C  0.12210837  0.76225079  0.84460534     0.78900
O362        O  0.04299414  0.84193315  0.96431065    -0.54900
C363        C  0.12232612  0.76209194  0.98871497     0.78900
C364        C  0.15781441  0.88874763  0.91657339     0.81300
Cd365      Cd  0.10651855  0.82375338  0.91676220     1.37500
O366        O  0.15123170  0.78251970  0.86254993    -0.53700
O367        O  0.14537025  0.87427680  0.96386921    -0.52500
C368        C  0.02268300  0.84344902  0.91716032     0.81200
O369        O  0.14497311  0.87447345  0.86935889    -0.54900
O370        O  0.08636128  0.77565087  0.84792477    -0.53300
O371        O  0.08684797  0.77621680  0.98698413    -0.53300
O372        O  0.04233409  0.84058520  0.86960160    -0.52500
C373        C  0.28630358  0.94164194  0.91706579    -0.09200
C374        C  0.31371252  0.91892467  0.91766225    -0.10700
C375        C  0.21432308  0.94167347  0.91654725    -0.09200
C376        C  0.18689017  0.91897957  0.91649066    -0.10700
C377        C  0.25017445  0.98751720  0.97452679    -0.09200
C378        C  0.25034065  0.99933038  0.69221028    -0.10700
C379        C  0.25050548  0.99933451  0.80783779    -0.09200
C380        C  0.25047795  0.98752454  0.85888905    -0.10700
C381        C  0.18699241  0.06782492  0.74983005    -0.09200
C382        C  0.21442781  0.04514916  0.74998861    -0.10700
C383        C  0.28637533  0.04519967  0.74971051    -0.09200
C384        C  0.31377030  0.06791743  0.74907689    -0.10700
C385        C  0.03632332  0.54525334  0.75017881    -0.09200
C386        C  0.06369282  0.56801569  0.75002555    -0.10700
C387        C  0.46437258  0.54519417  0.75046545    -0.09200
C388        C  0.43697739  0.56792030  0.75083244    -0.10700
C389        C  0.06359991  0.41846921  0.91707734    -0.09200
C390        C  0.03622652  0.44123530  0.91687838    -0.10700
C391        C  0.46424868  0.44128467  0.91644636    -0.09200
C392        C  0.43686013  0.41853616  0.91611606    -0.10700
C393        C  0.00028404  0.49953518  0.69218690    -0.09200
C394        C  0.50013801  0.48720183  0.97438577    -0.10700
C395        C  0.00044335  0.49913831  0.80782742    -0.09200
C396        C  0.00040258  0.48718882  0.85880482    -0.10700
C397        C  0.00003593  0.46651134  0.25000092     0.01600
C398        C  0.50011218  0.52045204  0.08306665     0.01600
O399        O  0.85028327  0.20380175  0.02633340    -0.53700
C400        C  0.87847743  0.22537734  0.15090322     0.78900
O401        O  0.85582894  0.11138122  0.03530510    -0.54900
C402        C  0.87965882  0.22321808  0.00705654     0.78900
C403        C  0.97779064  0.14283538  0.08317216     0.81300
Cd404      Cd  0.89418465  0.16260970  0.08121236     1.37500
O405        O  0.84931007  0.20618753  0.13051070    -0.53700
O406        O  0.95757110  0.14584272  0.13021765    -0.52500
C407        C  0.84265464  0.09783561  0.08284269     0.81200
O408        O  0.95811242  0.14425731  0.03547088    -0.54900
O409        O  0.91366638  0.21057592  0.15086394    -0.52900
O410        O  0.91511101  0.20905797  0.00968053    -0.53300
O411        O  0.85482306  0.11296622  0.12976803    -0.52500
O412        O  0.90096055  0.28211428  0.19387534    -0.53700
C413        C  0.87182767  0.26132779  0.31727823     0.78900
O414        O  0.89494506  0.37502577  0.20084798    -0.54900
C415        C  0.87173687  0.26302324  0.17343094     0.78900
C416        C  0.77238209  0.34337209  0.24857531     0.81300
Cd417      Cd  0.85626460  0.32382374  0.24671814     1.37500
O418        O  0.90098844  0.28144341  0.29906778    -0.53700
O419        O  0.79268086  0.34046066  0.29558475    -0.52500
C420        C  0.90766838  0.38878609  0.24849300     0.81200
O421        O  0.79205115  0.34191371  0.20087740    -0.54900
O422        O  0.83618722  0.27502945  0.31458403    -0.53300
O423        O  0.83645983  0.27764019  0.17436058    -0.53300
O424        O  0.89510062  0.37379486  0.29532374    -0.52500
O425        O  0.65042390  0.20494759  0.03142907    -0.53700
C426        C  0.62124295  0.22472928  0.15484485     0.78900
O427        O  0.54257140  0.14456766  0.03637218    -0.54900
C428        C  0.62113722  0.22397735  0.01100771     0.78900
C429        C  0.65760505  0.09785757  0.08386533     0.81300
Cd430      Cd  0.60606541  0.16263959  0.08358137     1.37500
O431        O  0.65050576  0.20529654  0.13529768    -0.53700
O432        O  0.64475414  0.11204798  0.03659767    -0.52500
C433        C  0.52244100  0.14285770  0.08364745     0.81200
O434        O  0.64510993  0.11234646  0.13109878    -0.54900
O435        O  0.58587234  0.21032535  0.15342009    -0.53300
O436        O  0.58590618  0.20926363  0.01194316    -0.53300
O437        O  0.54220762  0.14561182  0.13113802    -0.52500
O438        O  0.59892093  0.28172210  0.19737055    -0.53700
C439        C  0.62822893  0.26222582  0.32163275     0.78900
O440        O  0.70740640  0.34169358  0.20198039    -0.54900
C441        C  0.62810856  0.26231832  0.17754655     0.78900
C442        C  0.59247097  0.38889206  0.24998318     0.81300
Cd443      Cd  0.64376032  0.32387463  0.24958181     1.37500
O444        O  0.59903989  0.28209837  0.30287189    -0.53700
O445        O  0.60476657  0.37440565  0.20264537    -0.52500
C446        C  0.72767290  0.34338692  0.24915448     0.81200
O447        O  0.60543623  0.37461167  0.29713987    -0.54900
O448        O  0.66382309  0.27604933  0.31905185    -0.53300
O449        O  0.66349260  0.27668172  0.17887480    -0.53300
O450        O  0.70796499  0.34073413  0.29670004    -0.52500
C451        C  0.75001925  0.96619825  0.25013369     0.01600
C452        C  0.75012413  0.02037351  0.08347641     0.01600
O453        O  0.90009683  0.70390885  0.14097501    -0.53700
C454        C  0.87142015  0.72527088  0.01584010     0.78900
O455        O  0.89441637  0.61139412  0.13192002    -0.54900
C456        C  0.87081627  0.72373995  0.15950842     0.78900
C457        C  0.77243828  0.64273982  0.08449972     0.81300
Cd458      Cd  0.85598391  0.66275352  0.08616403     1.37500
O459        O  0.90064241  0.70603659  0.03601084    -0.53700
O460        O  0.79264251  0.64573303  0.03743898    -0.52500
C461        C  0.90760969  0.59800386  0.08429230     0.81200
O462        O  0.79212225  0.64426174  0.13219308    -0.54900
O463        O  0.83619070  0.71055889  0.01631113    -0.53300
O464        O  0.83523537  0.70989128  0.15663636    -0.53300
O465        O  0.89544569  0.61329561  0.03747068    -0.52500
O466        O  0.84960445  0.78348700  0.30823810    -0.53700
C467        C  0.87791792  0.76133227  0.18207077     0.78900
O468        O  0.85571122  0.87501913  0.29842233    -0.54900
C469        C  0.87875416  0.76320158  0.32604804     0.78900
C470        C  0.97765758  0.84390609  0.25040863     0.81300
Cd471      Cd  0.89397079  0.82385197  0.25217245     1.37500
O472        O  0.84882631  0.78120554  0.20107405    -0.53700
O473        O  0.95735906  0.84115290  0.20338451    -0.52500
C474        C  0.84248863  0.88864327  0.25094439     0.81200
O475        O  0.95802076  0.84217519  0.29811304    -0.54900
O476        O  0.91343733  0.77538198  0.18355411    -0.53300
O477        O  0.91455413  0.77640362  0.32197212    -0.53300
O478        O  0.85460555  0.87358545  0.20393139    -0.52500
O479        O  0.59956660  0.70494682  0.13569310    -0.53700
C480        C  0.62933985  0.72455408  0.01159180     0.78900
O481        O  0.70759187  0.64449922  0.13117901    -0.54900
C482        C  0.62876503  0.72442089  0.15535059     0.78900
C483        C  0.59263567  0.59798777  0.08312072     0.81300
Cd484      Cd  0.64423792  0.66275463  0.08356931     1.37500
O485        O  0.60003827  0.70478792  0.03026649    -0.53700
O486        O  0.60544764  0.61209285  0.13046619    -0.52500
C487        C  0.72778674  0.64272759  0.08396385     0.81200
O488        O  0.60518553  0.61256393  0.03595934    -0.54900
O489        O  0.66486143  0.71055741  0.01413550    -0.53300
O490        O  0.66415279  0.71006206  0.15411746    -0.53300
O491        O  0.70808929  0.64545195  0.03640991    -0.52500
O492        O  0.65041294  0.78262136  0.30387793    -0.53700
C493        C  0.62183549  0.76205968  0.17780233     0.78900
O494        O  0.54260162  0.84189890  0.29696572    -0.54900
C495        C  0.62125454  0.76230908  0.32156683     0.78900
C496        C  0.65755527  0.88862863  0.24935345     0.81300
Cd497      Cd  0.60602831  0.82384305  0.24921185     1.37500
O498        O  0.65098469  0.78151745  0.19764665    -0.53700
O499        O  0.64467823  0.87432247  0.29652435    -0.52500
C500        C  0.52234854  0.84388356  0.24980581     0.81200
O501        O  0.64509814  0.87424121  0.20200310    -0.54900
O502        O  0.58646030  0.77646020  0.17872933    -0.53300
O503        O  0.58549114  0.77563383  0.31783782    -0.53300
O504        O  0.54202523  0.84134917  0.20222020    -0.52500
C505        C  0.78598468  0.94154926  0.25031438    -0.09200
C506        C  0.81339073  0.91883907  0.25051984    -0.10700
C507        C  0.71403601  0.94156386  0.24996606    -0.09200
C508        C  0.68663864  0.91884177  0.24961633    -0.10700
C509        C  0.74995353  0.98748042  0.30788716    -0.09200
C510        C  0.75011219  0.99924080  0.02560155    -0.10700
C511        C  0.75014993  0.99910715  0.14122644    -0.09200
C512        C  0.75012313  0.98736802  0.19229342    -0.10700
C513        C  0.68671976  0.06768292  0.08383656    -0.09200
C514        C  0.71414999  0.04500264  0.08362576    -0.10700
C515        C  0.78609980  0.04499640  0.08352526    -0.09200
C516        C  0.81353783  0.06766710  0.08339729    -0.10700
C517        C  0.53609405  0.54509623  0.08293344    -0.09200
C518        C  0.56351342  0.56780068  0.08294898    -0.10700
C519        C  0.96413237  0.54509987  0.08307290    -0.09200
C520        C  0.93672232  0.56781238  0.08348669    -0.10700
C521        C  0.56343805  0.41915877  0.25018208    -0.09200
C522        C  0.53603879  0.44188715  0.25019516    -0.10700
C523        C  0.96407145  0.44182487  0.24987645    -0.09200
C524        C  0.93670688  0.41905562  0.24935537    -0.10700
C525        C  0.50008797  0.49911746  0.02535715    -0.09200
C526        C  0.99995428  0.48784543  0.30773234    -0.10700
C527        C  0.50014326  0.49932733  0.14097870    -0.09200
C528        C  0.50011498  0.48764483  0.19209402    -0.10700
C529        C  0.00028113  0.46673097  0.58320741     0.01600
C530        C  0.50015523  0.52103451  0.41650704     0.01600
O531        O  0.84978713  0.20390010  0.35862192    -0.53700
C532        C  0.87785405  0.22582019  0.48425584     0.78900
O533        O  0.85579519  0.11188871  0.36801692    -0.54900
C534        C  0.87903101  0.22386459  0.34028214     0.78900
C535        C  0.97783184  0.14359372  0.41607135     0.81300
Cd536      Cd  0.89399977  0.16322480  0.41420747     1.37500
O537        O  0.84876072  0.20631559  0.46435850    -0.53700
O538        O  0.95749793  0.14618725  0.46307829    -0.52500
C539        C  0.84263103  0.09825127  0.41551104     0.81200
O540        O  0.95820863  0.14536859  0.36834965    -0.54900
O541        O  0.91321610  0.21140566  0.48351604    -0.52900
O542        O  0.91470255  0.21028271  0.34374335    -0.53300
O543        O  0.85476286  0.11335966  0.46247749    -0.52500
O544        O  0.90030910  0.28296678  0.52591005    -0.53700
C545        C  0.87251683  0.26157349  0.65084818     0.78900
O546        O  0.89455386  0.37562527  0.53487471    -0.54900
C547        C  0.87093080  0.26338356  0.50705218     0.78900
C548        C  0.77265904  0.34364623  0.58316240     0.81300
Cd549      Cd  0.85645048  0.32417276  0.58093668     1.37500
O550        O  0.90162053  0.28061661  0.62993076    -0.53700
O551        O  0.79294213  0.34052161  0.63015000    -0.52500
C552        C  0.90783143  0.38913625  0.58236934     0.81200
O553        O  0.79231242  0.34241201  0.53543721    -0.54900
O554        O  0.83739380  0.27650467  0.65123912    -0.53300
O555        O  0.83543970  0.27742938  0.50989665    -0.53300
O556        O  0.89583253  0.37389443  0.62931077    -0.52500
O557        O  0.65042552  0.20476405  0.36276871    -0.53700
C558        C  0.62244878  0.22512305  0.48848651     0.78900
O559        O  0.54277997  0.14562629  0.36956803    -0.54900
C560        C  0.62111983  0.22476620  0.34470646     0.78900
C561        C  0.65776028  0.09831124  0.41727763     0.81300
Cd562      Cd  0.60635560  0.16326057  0.41728615     1.37500
O563        O  0.65154911  0.20605690  0.46765079    -0.53700
O564        O  0.64501135  0.11268468  0.37008003    -0.52500
C565        C  0.52252898  0.14362218  0.41671459     0.81200
O566        O  0.64522250  0.11268962  0.46457750    -0.54900
O567        O  0.58725800  0.21031595  0.48851466    -0.53300
O568        O  0.58549026  0.21110310  0.34813536    -0.53300
O569        O  0.54222974  0.14603201  0.46430949    -0.52500
O570        O  0.59988445  0.28201275  0.53084153    -0.53700
C571        C  0.62856020  0.26219380  0.65474561     0.78900
O572        O  0.70780683  0.34217130  0.53641163    -0.54900
C573        C  0.62920208  0.26275584  0.51106103     0.78900
C574        C  0.59274433  0.38913865  0.58355326     0.81300
Cd575      Cd  0.64416681  0.32420192  0.58345233     1.37500
O576        O  0.59936723  0.28149568  0.63462985    -0.53700
O577        O  0.60569480  0.37499925  0.53632893    -0.52500
C578        C  0.72798004  0.34365339  0.58367807     0.81200
O579        O  0.60510260  0.37454755  0.63081366    -0.54900
O580        O  0.66387093  0.27673764  0.65389364    -0.53300
O581        O  0.66450589  0.27729412  0.51241597    -0.53300
O582        O  0.70821163  0.34079112  0.63114966    -0.52500
C583        C  0.75034846  0.96640961  0.58337920     0.01600
C584        C  0.75016258  0.02063435  0.41664156     0.01600
O585        O  0.90093742  0.70516103  0.47285727    -0.53700
C586        C  0.87134507  0.72582410  0.34923503     0.78900
O587        O  0.89479376  0.61225394  0.46598864    -0.54900
C588        C  0.87178124  0.72435398  0.49324501     0.78900
C589        C  0.77247234  0.64350625  0.41807791     0.81300
Cd590      Cd  0.85611529  0.66346992  0.42013842     1.37500
O591        O  0.90049757  0.70531202  0.36642038    -0.53700
O592        O  0.79275509  0.64666134  0.37110914    -0.52500
C593        C  0.90767161  0.59865480  0.41831678     0.81200
O594        O  0.79210635  0.64483258  0.46582453    -0.54900
O595        O  0.83555051  0.71260678  0.35314977    -0.53300
O596        O  0.83645026  0.70985495  0.49225804    -0.53300
O597        O  0.89518347  0.61374195  0.37150919    -0.52500
O598        O  0.85028154  0.78275762  0.64107841    -0.53700
C599        C  0.87866988  0.76192139  0.51597951     0.78900
O600        O  0.85590428  0.87535390  0.63258085    -0.54900
C601        C  0.87957923  0.76295876  0.65967700     0.78900
C602        C  0.97799333  0.84408183  0.58500363     0.81300
Cd603      Cd  0.89439495  0.82414810  0.58662198     1.37500
O604        O  0.84950587  0.78129870  0.53595215    -0.53700
O605        O  0.95778509  0.84108430  0.53794087    -0.52500
C606        C  0.84287652  0.88893191  0.58495757     0.81200
O607        O  0.95830209  0.84257988  0.63268551    -0.54900
O608        O  0.91400300  0.77641272  0.51677815    -0.53300
O609        O  0.91513156  0.77687890  0.65694821    -0.53300
O610        O  0.85518220  0.87382390  0.53810187    -0.52500
O611        O  0.59936217  0.70541482  0.46971103    -0.53700
C612        C  0.62863073  0.72490331  0.34465690     0.78900
O613        O  0.70752327  0.64507767  0.46459210    -0.54900
C614        C  0.62852179  0.72515977  0.48883322     0.78900
C615        C  0.59271404  0.59856278  0.41655668     0.81300
Cd616      Cd  0.64413875  0.66345791  0.41695947     1.37500
O617        O  0.59951056  0.70466831  0.36268767    -0.53700
O618        O  0.60514176  0.61295452  0.46390929    -0.52500
C619        C  0.72779836  0.64349904  0.41742956     0.81200
O620        O  0.60560987  0.61288934  0.36939705    -0.54900
O621        O  0.66438463  0.71150778  0.34801914    -0.53300
O622        O  0.66405041  0.71116468  0.48677742    -0.53300
O623        O  0.70815226  0.64639152  0.36985835    -0.52500
O624        O  0.65085964  0.78185928  0.63620930    -0.53700
C625        C  0.62144003  0.76264954  0.51178098     0.78900
O626        O  0.54287244  0.84235382  0.63169320    -0.54900
C627        C  0.62163893  0.76228502  0.65556618     0.78900
C628        C  0.65780396  0.88892635  0.58378437     0.81300
Cd629      Cd  0.60625030  0.82415939  0.58405107     1.37500
O630        O  0.65067978  0.78243306  0.53058972    -0.53700
O631        O  0.64511606  0.87469106  0.63112206    -0.52500
C632        C  0.52265341  0.84410715  0.58448300     0.81200
O633        O  0.64512722  0.87449426  0.53660428    -0.54900
O634        O  0.58587788  0.77655708  0.51432046    -0.53300
O635        O  0.58622637  0.77657968  0.65412377    -0.53300
O636        O  0.54234030  0.84140161  0.53693231    -0.52500
C637        C  0.78633680  0.94179231  0.58358596    -0.09200
C638        C  0.81377058  0.91911482  0.58415036    -0.10700
C639        C  0.71437657  0.94176931  0.58342743    -0.09200
C640        C  0.68693850  0.91909218  0.58360014    -0.10700
C641        C  0.75031512  0.98762603  0.64114141    -0.09200
C642        C  0.74999928  0.99935860  0.35887948    -0.10700
C643        C  0.75030793  0.99941691  0.47447838    -0.09200
C644        C  0.75036199  0.98761186  0.52552693    -0.10700
C645        C  0.68680645  0.06804996  0.41711449    -0.09200
C646        C  0.71418722  0.04530005  0.41684718    -0.10700
C647        C  0.78616053  0.04527567  0.41636727    -0.09200
C648        C  0.81356453  0.06800448  0.41602260    -0.10700
C649        C  0.53617599  0.54564959  0.41632551    -0.09200
C650        C  0.56361054  0.56834759  0.41634726    -0.10700
C651        C  0.96419522  0.54572753  0.41676865    -0.09200
C652        C  0.93679295  0.56845648  0.41739474    -0.10700
C653        C  0.56366650  0.41936502  0.58345573    -0.09200
C654        C  0.53625669  0.44207960  0.58328058    -0.10700
C655        C  0.96429072  0.44209807  0.58310299    -0.09200
C656        C  0.93688221  0.41938256  0.58287839    -0.10700
C657        C  0.49999159  0.49976794  0.35871167    -0.09200
C658        C  0.00025587  0.48788116  0.64107025    -0.10700
C659        C  0.50027345  0.49980400  0.47434404    -0.09200
C660        C  0.50031420  0.48799802  0.52539968    -0.10700
C661        C  0.00025692  0.46592430  0.91662551     0.01600
C662        C  0.50036489  0.52056741  0.75015950     0.01600
O663        O  0.84991447  0.20481070  0.69362310    -0.53700
C664        C  0.87868776  0.22521098  0.81712757     0.78900
O665        O  0.85555350  0.11190835  0.70054667    -0.54900
C666        C  0.87920881  0.22391239  0.67339246     0.78900
C667        C  0.97804709  0.14305011  0.74847286     0.81300
Cd668      Cd  0.89434954  0.16290735  0.74651434     1.37500
O669        O  0.84956011  0.20500536  0.79905402    -0.53700
O670        O  0.95778675  0.14606949  0.79548291    -0.52500
C671        C  0.84285122  0.09812087  0.74820026     0.81200
O672        O  0.95838172  0.14451194  0.70076080    -0.54900
O673        O  0.91438160  0.21163843  0.81433015    -0.52900
O674        O  0.91446476  0.20926045  0.67446725    -0.53300
O675        O  0.85547839  0.11302155  0.79504821    -0.52500
O676        O  0.90062778  0.28277995  0.85797951    -0.53700
C677        C  0.87278471  0.26073488  0.98403823     0.78900
O678        O  0.89483382  0.37460730  0.86789943    -0.54900
C679        C  0.87139367  0.26265111  0.84004561     0.78900
C680        C  0.77265716  0.34284821  0.91532905     0.81300
Cd681      Cd  0.85649580  0.32326980  0.91384816     1.37500
O682        O  0.90183713  0.28002084  0.96353134    -0.53700
O683        O  0.79293209  0.34017791  0.96238840    -0.52500
C684        C  0.90781966  0.38826520  0.91546528     0.81200
O685        O  0.79233415  0.34112972  0.86765733    -0.54900
O686        O  0.83750445  0.27533449  0.98373722    -0.53300
O687        O  0.83566327  0.27605354  0.84382418    -0.53300
O688        O  0.89553194  0.37315957  0.96236803    -0.52500
O689        O  0.65099334  0.20509398  0.69684882    -0.53700
C690        C  0.62220414  0.22431357  0.82133283     0.78900
O691        O  0.54294949  0.14467585  0.70182577    -0.54900
C692        C  0.62172551  0.22457157  0.67738409     0.78900
C693        C  0.65788724  0.09800812  0.74959695     0.81300
Cd694      Cd  0.60645643  0.16283240  0.74927286     1.37500
O695        O  0.65131374  0.20416597  0.80306718    -0.53700
O696        O  0.64558170  0.11251528  0.70224522    -0.52500
C697        C  0.52273148  0.14300701  0.74903231     0.81200
O698        O  0.64486102  0.11218562  0.79676295    -0.54900
O699        O  0.58648312  0.21080975  0.81831679    -0.53300
O700        O  0.58634318  0.21022651  0.67895319    -0.53300
O701        O  0.54245195  0.14574828  0.79656264    -0.52500
O702        O  0.60024588  0.28213172  0.86140209    -0.53700
C703        C  0.62784039  0.26155011  0.98814940     0.78900
O704        O  0.70767861  0.34094572  0.86877907    -0.54900
C705        C  0.62951227  0.26174576  0.84429670     0.78900
C706        C  0.59267052  0.38821662  0.91705802     0.81300
Cd707      Cd  0.64413838  0.32329084  0.91672767     1.37500
O708        O  0.59881027  0.28034489  0.96652195    -0.53700
O709        O  0.60530703  0.37390571  0.86977833    -0.52500
C710        C  0.72796294  0.34286915  0.91591817     0.81200
O711        O  0.60535836  0.37379402  0.96427273    -0.54900
O712        O  0.66292357  0.27657584  0.98873086    -0.53300
O713        O  0.66527014  0.27500792  0.84857161    -0.53300
O714        O  0.70829210  0.34043834  0.96352175    -0.52500
C715        C  0.75032441  0.96629835  0.91673111     0.01600
C716        C  0.75041925  0.02053995  0.74998048     0.01600
O717        O  0.90069634  0.70354554  0.80865026    -0.53700
C718        C  0.87252801  0.72535784  0.68227057     0.78900
O719        O  0.89472260  0.61172479  0.79886770    -0.54900
C720        C  0.87152478  0.72388187  0.82621570     0.78900
C721        C  0.77277033  0.64290344  0.75081061     0.81300
Cd722      Cd  0.85644672  0.66299027  0.75264636     1.37500
O723        O  0.90162086  0.70561188  0.70162994    -0.53700
O724        O  0.79305497  0.64575125  0.70379539    -0.52500
C725        C  0.90791177  0.59815096  0.75135891     0.81200
O726        O  0.79241469  0.64457672  0.79852213    -0.54900
O727        O  0.83705067  0.71120071  0.68350978    -0.53300
O728        O  0.83573736  0.71066134  0.82208711    -0.53300
O729        O  0.89579406  0.61329365  0.70438742    -0.52500
O730        O  0.84907752  0.78182572  0.97203513    -0.53700
C731        C  0.87892479  0.76131487  0.84921888     0.78900
O732        O  0.85568578  0.87499035  0.96607323    -0.54900
C733        C  0.87818581  0.76289046  0.99316655     0.78900
C734        C  0.97798165  0.84342043  0.91783877     0.81300
Cd735      Cd  0.89415457  0.82373072  0.92003376     1.37500
O736        O  0.84976587  0.78189918  0.86615446    -0.53700
O737        O  0.95764040  0.84031712  0.87090303    -0.52500
C738        C  0.84278218  0.88868849  0.91846131     0.81200
O739        O  0.95836921  0.84209710  0.96559374    -0.54900
O740        O  0.91472522  0.77449429  0.85328004    -0.53300
O741        O  0.91339179  0.77766684  0.99290254    -0.53300
O742        O  0.85517442  0.87364736  0.87159747    -0.52500
O743        O  0.60025934  0.70440836  0.80435860    -0.53700
C744        C  0.62856803  0.72463667  0.67801788     0.78900
O745        O  0.70784909  0.64483046  0.79737473    -0.54900
C746        C  0.62946297  0.72478728  0.82171690     0.78900
C747        C  0.59278749  0.59823759  0.74984737     0.81300
Cd748      Cd  0.64442909  0.66300082  0.74969045     1.37500
O749        O  0.59943202  0.70520533  0.69797152    -0.53700
O750        O  0.60567088  0.61250388  0.79703754    -0.52500
C751        C  0.72808160  0.64289737  0.75020480     0.81200
O752        O  0.60526926  0.61265995  0.70252447    -0.54900
O753        O  0.66394327  0.71022937  0.67891753    -0.53300
O754        O  0.66520938  0.71145601  0.81786686    -0.53300
O755        O  0.70838549  0.64547442  0.70262721    -0.52500
O756        O  0.65147015  0.78172455  0.96925793    -0.53700
C757        C  0.62210858  0.76225058  0.84460525     0.78900
O758        O  0.54299402  0.84193312  0.96431073    -0.54900
C759        C  0.62232571  0.76209166  0.98871493     0.78900
C760        C  0.65781435  0.88874746  0.91657382     0.81300
Cd761      Cd  0.60651833  0.82375321  0.91676213     1.37500
O762        O  0.65123174  0.78251986  0.86254913    -0.53700
O763        O  0.64537012  0.87427651  0.96386926    -0.52500
C764        C  0.52268294  0.84344890  0.91716114     0.81200
O765        O  0.64497281  0.87447358  0.86935955    -0.54900
O766        O  0.58636140  0.77565027  0.84792523    -0.53300
O767        O  0.58684764  0.77621647  0.98698400    -0.53300
O768        O  0.54233400  0.84058495  0.86960121    -0.52500
C769        C  0.78630343  0.94164181  0.91706613    -0.09200
C770        C  0.81371241  0.91892453  0.91766289    -0.10700
C771        C  0.71432287  0.94167330  0.91654741    -0.09200
C772        C  0.68688999  0.91897926  0.91649111    -0.10700
C773        C  0.75017428  0.98751724  0.97452709    -0.09200
C774        C  0.75034071  0.99933025  0.69221041    -0.10700
C775        C  0.75050555  0.99933419  0.80783776    -0.09200
C776        C  0.75047807  0.98752424  0.85888897    -0.10700
C777        C  0.68699258  0.06782477  0.74982966    -0.09200
C778        C  0.71442797  0.04514893  0.74998874    -0.10700
C779        C  0.78637542  0.04519937  0.74971092    -0.09200
C780        C  0.81377022  0.06791726  0.74907718    -0.10700
C781        C  0.53632338  0.54525325  0.75017921    -0.09200
C782        C  0.56369286  0.56801560  0.75002596    -0.10700
C783        C  0.96437248  0.54519393  0.75046480    -0.09200
C784        C  0.93697719  0.56792015  0.75083217    -0.10700
C785        C  0.56359960  0.41846951  0.91707775    -0.09200
C786        C  0.53622607  0.44123545  0.91687861    -0.10700
C787        C  0.96424897  0.44128484  0.91644602    -0.09200
C788        C  0.93686028  0.41853643  0.91611584    -0.10700
C789        C  0.50028370  0.49953541  0.69218738    -0.09200
C790        C  0.00013862  0.48720188  0.97438545    -0.10700
C791        C  0.50044324  0.49913842  0.80782790    -0.09200
C792        C  0.50040219  0.48718891  0.85880538    -0.10700
loop_ 
_geom_bond_atom_site_label_1 
_geom_bond_atom_site_label_2 
_geom_bond_distance 
_geom_bond_site_symmetry_2 
_ccdc_geom_bond_type 
C1          C127   1.469       .  S
C1          C130   1.526       .  S
C1          C522   1.468       .  S
C1          C528   1.526       .  S
C2          C121   1.468       .  S
C2          C129   1.526       .  S
C2          C131   1.526       .  S
C2          C519   1.468   1_455  S
O3            C6   1.264       .  A
O3           Cd8   2.407       .  S
C4           O13   1.267       .  A
C4            O9   1.263       .  A
C4           C19   1.452       .  S
O5           C11   1.267       .  A
O5           Cd8   2.451       .  S
C6           O14   1.267       .  A
C6          C281   1.452   1_554  S
C7           O12   1.270       .  A
C7           O10   1.270       .  A
C7          C433   1.462       .  S
Cd8          O15   2.453       .  S
Cd8          O14   2.426       .  S
Cd8          O13   2.423       .  S
Cd8           O9   2.417       .  S
Cd8          O12   2.431       .  S
Cd8          O10   2.434       .  S
C11          O15   1.268       .  A
C11         C120   1.435       .  S
O16          C19   1.263       .  A
O16         Cd21   2.411       .  S
C17          O26   1.266       .  A
C17          O22   1.264       .  A
C17         C138   1.452       .  S
O18          C24   1.268       .  A
O18         Cd21   2.455       .  S
C19          O27   1.267       .  A
C20          O25   1.270       .  A
C20          O23   1.270       .  A
C20          C50   1.464       .  S
Cd21         O28   2.453       .  S
Cd21         O27   2.424       .  S
Cd21         O26   2.422       .  S
Cd21         O22   2.420       .  S
Cd21         O25   2.437       .  S
Cd21         O23   2.437       .  S
C24          O28   1.268       .  A
C24         C128   1.436       .  S
O29          C32   1.263       .  A
O29         Cd34   2.409       .  S
C30          O39   1.267       .  A
C30          O35   1.264       .  A
C30          C45   1.452       .  S
O31          C37   1.270       .  A
O31         Cd34   2.430       .  S
C32          O40   1.267       .  A
C32         C307   1.452   1_554  S
C33          O38   1.268       .  A
C33          O36   1.267       .  A
C33         C117   1.435       .  S
Cd34         O41   2.434       .  S
Cd34         O40   2.425       .  S
Cd34         O39   2.425       .  S
Cd34         O35   2.414       .  S
Cd34         O38   2.453       .  S
Cd34         O36   2.451       .  S
C37          O41   1.271       .  A
C37         C403   1.462   1_455  S
O42          C45   1.264       .  A
O42         Cd47   2.416       .  S
C43          O52   1.266       .  A
C43          O48   1.264       .  A
C43         C164   1.452       .  S
O44          C50   1.270       .  A
O44         Cd47   2.436       .  S
C45          O53   1.266       .  A
C46          O51   1.268       .  A
C46          O49   1.268       .  A
C46         C125   1.436       .  S
Cd47         O54   2.438       .  S
Cd47         O53   2.422       .  S
Cd47         O52   2.421       .  S
Cd47         O48   2.417       .  S
Cd47         O51   2.454       .  S
Cd47         O49   2.453       .  S
C50          O54   1.271       .  A
C55         C109   1.468       .  S
C55         C111   1.468       .  S
C55         C113   1.526       .  S
C55         C116   1.525       .  S
C56         C114   1.526   1_545  S
C56         C115   1.525   1_545  S
C56         C118   1.468       .  S
C56         C119   1.468       .  S
O57          C60   1.264       .  A
O57         Cd62   2.410       .  S
C58          O67   1.267       .  A
C58          O63   1.264       .  A
C58         C337   1.452   1_554  S
O59          C65   1.268       .  A
O59         Cd62   2.453       .  S
C60          O68   1.266       .  A
C60          C71   1.453       .  S
C61          O66   1.271       .  A
C61          O64   1.270       .  A
C61          C91   1.462       .  S
Cd62         O69   2.452       .  S
Cd62         O68   2.426       .  S
Cd62         O67   2.424       .  S
Cd62         O63   2.414       .  S
Cd62         O66   2.433       .  S
Cd62         O64   2.432       .  S
C65          O69   1.268       .  A
C65         C124   1.436       .  S
O70          C73   1.264       .  A
O70         Cd75   2.413       .  S
C71          O80   1.266       .  A
C71          O76   1.264       .  A
O72          C78   1.268       .  A
O72         Cd75   2.451       .  S
C73          O81   1.266       .  A
C73         C190   1.452       .  S
C74          O79   1.270       .  A
C74          O77   1.270       .  A
C74         C500   1.463       .  S
Cd75         O82   2.452       .  S
Cd75         O81   2.421       .  S
Cd75         O80   2.420       .  S
Cd75         O76   2.421       .  S
Cd75         O79   2.435       .  S
Cd75         O77   2.437       .  S
C78          O82   1.268       .  A
C78         C110   1.436       .  S
O83          C86   1.264       .  A
O83         Cd88   2.413       .  S
C84          O93   1.266       .  A
C84          O89   1.264       .  A
C84         C363   1.453   1_554  S
O85          C91   1.270       .  A
O85         Cd88   2.432       .  S
C86          O94   1.266       .  A
C86          C97   1.452       .  S
C87          O92   1.268       .  A
C87          O90   1.268       .  A
C87         C122   1.436       .  S
Cd88         O95   2.433       .  S
Cd88         O94   2.424       .  S
Cd88         O93   2.425       .  S
Cd88         O89   2.413       .  S
Cd88         O92   2.453       .  S
Cd88         O90   2.453       .  S
C91          O95   1.270       .  A
O96          C99   1.264       .  A
O96        Cd101   2.415       .  S
C97         O106   1.266       .  A
C97         O102   1.264       .  A
O98         C104   1.270       .  A
O98        Cd101   2.434       .  S
C99         O107   1.266       .  A
C99         C216   1.452       .  S
C100        O105   1.268       .  A
C100        O103   1.267       .  A
C100        C112   1.436       .  S
Cd101       O108   2.437       .  S
Cd101       O107   2.422       .  S
Cd101       O106   2.422       .  S
Cd101       O102   2.415       .  S
Cd101       O105   2.454       .  S
Cd101       O103   2.450       .  S
C104        O108   1.271       .  A
C104        C470   1.463   1_455  S
C109        C110   1.207       .  T
C111        C112   1.207       .  T
C113        C246   1.244       .  T
C114        C377   1.243   1_554  T
C115        C116   1.243       .  T
C117        C118   1.207       .  T
C119        C120   1.207       .  T
C121        C122   1.207       .  T
C123        C398   1.468       .  S
C123        C124   1.207       .  T
C125        C126   1.208       .  T
C126        C397   1.468       .  S
C127        C128   1.208       .  T
C129        C790   1.244   1_554  T
C130        C657   1.244       .  T
C131        C132   1.244       .  T
C132        C397   1.526       .  S
C133        C654   1.468       .  S
C133        C259   1.468       .  S
C133        C262   1.526       .  S
C133        C660   1.526       .  S
C134        C253   1.469       .  S
C134        C651   1.469   1_455  S
C134        C261   1.526   1_455  S
C134        C263   1.526       .  S
O135        C138   1.264       .  A
O135       Cd140   2.411       .  S
C136        O145   1.266       .  A
C136        O141   1.264       .  A
C136        C151   1.453       .  S
O137        C143   1.268       .  A
O137       Cd140   2.454       .  S
C138        O146   1.266       .  A
C139        O144   1.270       .  A
C139        O142   1.270       .  A
C139        C565   1.463       .  S
Cd140       O147   2.453       .  S
Cd140       O146   2.423       .  S
Cd140       O145   2.421       .  S
Cd140       O141   2.422       .  S
Cd140       O144   2.435       .  S
Cd140       O142   2.438       .  S
C143        O147   1.268       .  A
C143        C252   1.436       .  S
O148        C151   1.264       .  A
O148       Cd153   2.409       .  S
C149        O158   1.267       .  A
C149        O154   1.264       .  A
C149        C270   1.452       .  S
O150        C156   1.267       .  A
O150       Cd153   2.453       .  S
C151        O159   1.266       .  A
C152        O157   1.270       .  A
C152        O155   1.270       .  A
C152        C182   1.463       .  S
Cd153       O160   2.454       .  S
Cd153       O159   2.428       .  S
Cd153       O158   2.421       .  S
Cd153       O154   2.418       .  S
Cd153       O157   2.432       .  S
Cd153       O155   2.436       .  S
C156        O160   1.268       .  A
C156        C260   1.436       .  S
O161        C164   1.264       .  A
O161       Cd166   2.413       .  S
C162        O171   1.267       .  A
C162        O167   1.263       .  A
C162        C177   1.452       .  S
O163        C169   1.270       .  A
O163       Cd166   2.434       .  S
C164        O172   1.266       .  A
C165        O170   1.268       .  A
C165        O168   1.267       .  A
C165        C249   1.436       .  S
Cd166       O173   2.438       .  S
Cd166       O172   2.424       .  S
Cd166       O171   2.421       .  S
Cd166       O167   2.417       .  S
Cd166       O170   2.455       .  S
Cd166       O168   2.452       .  S
C169        O173   1.271       .  A
C169        C535   1.463   1_455  S
O174        C177   1.264       .  A
O174       Cd179   2.410       .  S
C175        O184   1.267       .  A
C175        O180   1.264       .  A
C175        C296   1.452       .  S
O176        C182   1.270       .  A
O176       Cd179   2.432       .  S
C177        O185   1.267       .  A
C178        O183   1.268       .  A
C178        O181   1.267       .  A
C178        C257   1.436       .  S
Cd179       O186   2.437       .  S
Cd179       O185   2.426       .  S
Cd179       O184   2.423       .  S
Cd179       O180   2.415       .  S
Cd179       O183   2.454       .  S
Cd179       O181   2.453       .  S
C182        O186   1.271       .  A
C187        C241   1.468       .  S
C187        C243   1.468       .  S
C187        C245   1.525       .  S
C187        C248   1.526       .  S
C188        C246   1.526   1_545  S
C188        C247   1.526   1_545  S
C188        C250   1.469       .  S
C188        C251   1.469       .  S
O189        C192   1.263       .  A
O189       Cd194   2.411       .  S
C190        O199   1.266       .  A
C190        O195   1.264       .  A
O191        C197   1.268       .  A
O191       Cd194   2.455       .  S
C192        O200   1.267       .  A
C192        C203   1.452       .  S
C193        O198   1.270       .  A
C193        O196   1.270       .  A
C193        C223   1.463       .  S
Cd194       O201   2.452       .  S
Cd194       O200   2.424       .  S
Cd194       O199   2.422       .  S
Cd194       O195   2.417       .  S
Cd194       O198   2.435       .  S
Cd194       O196   2.434       .  S
C197        O201   1.268       .  A
C197        C256   1.436       .  S
O202        C205   1.264       .  A
O202       Cd207   2.411       .  S
C203        O212   1.266       .  A
C203        O208   1.264       .  A
O204        C210   1.268       .  A
O204       Cd207   2.453       .  S
C205        O213   1.266       .  A
C205        C322   1.453       .  S
C206        O211   1.271       .  A
C206        O209   1.270       .  A
C206        C632   1.462       .  S
Cd207       O214   2.451       .  S
Cd207       O213   2.426       .  S
Cd207       O212   2.421       .  S
Cd207       O208   2.415       .  S
Cd207       O211   2.434       .  S
Cd207       O209   2.432       .  S
C210        O214   1.267       .  A
C210        C242   1.436       .  S
O215        C218   1.264       .  A
O215       Cd220   2.417       .  S
C216        O225   1.266       .  A
C216        O221   1.264       .  A
O217        C223   1.270       .  A
O217       Cd220   2.434       .  S
C218        O226   1.266       .  A
C218        C229   1.452       .  S
C219        O224   1.268       .  A
C219        O222   1.268       .  A
C219        C254   1.436       .  S
Cd220       O227   2.435       .  S
Cd220       O226   2.423       .  S
Cd220       O225   2.420       .  S
Cd220       O221   2.414       .  S
Cd220       O224   2.453       .  S
Cd220       O222   2.452       .  S
C223        O227   1.270       .  A
O228        C231   1.264       .  A
O228       Cd233   2.413       .  S
C229        O238   1.266       .  A
C229        O234   1.264       .  A
O230        C236   1.270       .  A
O230       Cd233   2.433       .  S
C231        O239   1.266       .  A
C231        C348   1.452       .  S
C232        O237   1.268       .  A
C232        O235   1.268       .  A
C232        C244   1.436       .  S
Cd233       O240   2.433       .  S
Cd233       O239   2.424       .  S
Cd233       O238   2.423       .  S
Cd233       O234   2.413       .  S
Cd233       O237   2.451       .  S
Cd233       O235   2.453       .  S
C236        O240   1.270       .  A
C236        C602   1.462   1_455  S
C241        C242   1.207       .  T
C243        C244   1.207       .  T
C245        C378   1.243       .  T
C247        C248   1.244       .  T
C249        C250   1.208       .  T
C251        C252   1.208       .  T
C253        C254   1.208       .  T
C255        C530   1.469       .  S
C255        C256   1.208       .  T
C257        C258   1.207       .  T
C258        C529   1.468       .  S
C259        C260   1.207       .  T
C261        C526   1.244       .  T
C262        C789   1.244       .  T
C263        C264   1.244       .  T
C264        C529   1.526       .  S
C265        C786   1.469       .  S
C265        C391   1.469       .  S
C265        C394   1.526       .  S
C265        C792   1.526       .  S
C266        C385   1.469       .  S
C266        C783   1.468   1_455  S
C266        C393   1.526       .  S
C266        C395   1.526       .  S
O267        C270   1.263       .  A
O267       Cd272   2.410       .  S
C268        O277   1.266       .  A
C268        O273   1.264       .  A
C268        C283   1.452       .  S
O269        C275   1.268       .  A
O269       Cd272   2.453       .  S
C270        O278   1.267       .  A
C271        O276   1.270       .  A
C271        O274   1.270       .  A
C271        C697   1.463       .  S
Cd272       O279   2.451       .  S
Cd272       O278   2.425       .  S
Cd272       O277   2.420       .  S
Cd272       O273   2.418       .  S
Cd272       O276   2.434       .  S
Cd272       O274   2.435       .  S
C275        O279   1.267       .  A
C275        C384   1.436       .  S
O280        C283   1.264       .  A
O280       Cd285   2.409       .  S
C281        O290   1.266       .  A
C281        O286   1.263       .  A
O282        C288   1.268       .  A
O282       Cd285   2.453       .  S
C283        O291   1.266       .  A
C284        O289   1.271       .  A
C284        O287   1.270       .  A
C284        C314   1.463       .  S
Cd285       O292   2.454       .  S
Cd285       O291   2.422       .  S
Cd285       O290   2.421       .  S
Cd285       O286   2.422       .  S
Cd285       O289   2.436       .  S
Cd285       O287   2.436       .  S
C288        O292   1.268       .  A
C288        C392   1.436       .  S
O293        C296   1.264       .  A
O293       Cd298   2.414       .  S
C294        O303   1.266       .  A
C294        O299   1.264       .  A
C294        C309   1.452       .  S
O295        C301   1.270       .  A
O295       Cd298   2.434       .  S
C296        O304   1.266       .  A
C297        O302   1.268       .  A
C297        O300   1.268       .  A
C297        C381   1.435       .  S
Cd298       O305   2.436       .  S
Cd298       O304   2.423       .  S
Cd298       O303   2.419       .  S
Cd298       O299   2.417       .  S
Cd298       O302   2.451       .  S
Cd298       O300   2.451       .  S
C301        O305   1.271       .  A
C301        C667   1.463   1_455  S
O306        C309   1.264       .  A
O306       Cd311   2.412       .  S
C307        O316   1.267       .  A
C307        O312   1.263       .  A
O308        C314   1.270       .  A
O308       Cd311   2.435       .  S
C309        O317   1.266       .  A
C310        O315   1.268       .  A
C310        O313   1.268       .  A
C310        C389   1.437       .  S
Cd311       O318   2.436       .  S
Cd311       O317   2.424       .  S
Cd311       O316   2.421       .  S
Cd311       O312   2.416       .  S
Cd311       O315   2.456       .  S
Cd311       O313   2.452       .  S
C314        O318   1.270       .  A
C319        C373   1.469       .  S
C319        C375   1.468       .  S
C319        C377   1.526       .  S
C319        C380   1.526       .  S
C320        C378   1.525   1_545  S
C320        C379   1.526   1_545  S
C320        C382   1.468       .  S
C320        C383   1.468       .  S
O321        C324   1.264       .  A
O321       Cd326   2.414       .  S
C322        O331   1.266       .  A
C322        O327   1.264       .  A
O323        C329   1.268       .  A
O323       Cd326   2.453       .  S
C324        O332   1.266       .  A
C324        C335   1.453       .  S
C325        O330   1.270       .  A
C325        O328   1.270       .  A
C325        C355   1.463       .  S
Cd326       O333   2.452       .  S
Cd326       O332   2.424       .  S
Cd326       O331   2.420       .  S
Cd326       O327   2.419       .  S
Cd326       O330   2.435       .  S
Cd326       O328   2.437       .  S
C329        O333   1.268       .  A
C329        C388   1.436       .  S
O334        C337   1.263       .  A
O334       Cd339   2.413       .  S
C335        O344   1.266       .  A
C335        O340   1.264       .  A
O336        C342   1.268       .  A
O336       Cd339   2.455       .  S
C337        O345   1.267       .  A
C338        O343   1.270       .  A
C338        O341   1.270       .  A
C338        C764   1.463       .  S
Cd339       O346   2.452       .  S
Cd339       O345   2.423       .  S
Cd339       O344   2.422       .  S
Cd339       O340   2.419       .  S
Cd339       O343   2.437       .  S
Cd339       O341   2.437       .  S
C342        O346   1.268       .  A
C342        C374   1.436       .  S
O347        C350   1.264       .  A
O347       Cd352   2.415       .  S
C348        O357   1.267       .  A
C348        O353   1.264       .  A
O349        C355   1.270       .  A
O349       Cd352   2.434       .  S
C350        O358   1.266       .  A
C350        C361   1.453       .  S
C351        O356   1.268       .  A
C351        O354   1.268       .  A
C351        C386   1.436       .  S
Cd352       O359   2.437       .  S
Cd352       O358   2.425       .  S
Cd352       O357   2.421       .  S
Cd352       O353   2.414       .  S
Cd352       O356   2.454       .  S
Cd352       O354   2.452       .  S
C355        O359   1.271       .  A
O360        C363   1.264       .  A
O360       Cd365   2.418       .  S
C361        O370   1.266       .  A
C361        O366   1.264       .  A
O362        C368   1.270       .  A
O362       Cd365   2.436       .  S
C363        O371   1.266       .  A
C364        O369   1.268       .  A
C364        O367   1.268       .  A
C364        C376   1.436       .  S
Cd365       O372   2.438       .  S
Cd365       O371   2.422       .  S
Cd365       O370   2.420       .  S
Cd365       O366   2.417       .  S
Cd365       O369   2.454       .  S
Cd365       O367   2.453       .  S
C368        O372   1.270       .  A
C368        C734   1.463   1_455  S
C373        C374   1.208       .  T
C375        C376   1.207       .  T
C379        C380   1.244       .  T
C381        C382   1.207       .  T
C383        C384   1.207       .  T
C385        C386   1.208       .  T
C387        C662   1.468       .  S
C387        C388   1.207       .  T
C389        C390   1.208       .  T
C390        C661   1.469       .  S
C391        C392   1.208       .  T
C393        C658   1.244       .  T
C394        C525   1.244   1_556  T
C395        C396   1.244       .  T
C396        C661   1.526       .  S
C397        C523   1.469   1_455  S
C397        C526   1.526   1_455  S
C398        C517   1.468       .  S
C398        C525   1.526       .  S
C398        C527   1.526       .  S
O399        C402   1.264       .  A
O399       Cd404   2.407       .  S
C400        O409   1.267       .  A
C400        O405   1.263       .  A
C400        C415   1.452       .  S
O401        C407   1.267       .  A
O401       Cd404   2.451       .  S
C402        O410   1.267       .  A
C402        C677   1.452   1_554  S
C403        O408   1.270       .  A
C403        O406   1.270       .  A
Cd404       O411   2.453       .  S
Cd404       O410   2.426       .  S
Cd404       O409   2.423       .  S
Cd404       O405   2.417       .  S
Cd404       O408   2.431       .  S
Cd404       O406   2.434       .  S
C407        O411   1.268       .  A
C407        C516   1.435       .  S
O412        C415   1.263       .  A
O412       Cd417   2.411       .  S
C413        O422   1.266       .  A
C413        O418   1.264       .  A
C413        C534   1.452       .  S
O414        C420   1.268       .  A
O414       Cd417   2.455       .  S
C415        O423   1.267       .  A
C416        O421   1.270       .  A
C416        O419   1.270       .  A
C416        C446   1.464       .  S
Cd417       O424   2.453       .  S
Cd417       O423   2.424       .  S
Cd417       O422   2.422       .  S
Cd417       O418   2.420       .  S
Cd417       O421   2.437       .  S
Cd417       O419   2.437       .  S
C420        O424   1.268       .  A
C420        C524   1.436       .  S
O425        C428   1.263       .  A
O425       Cd430   2.409       .  S
C426        O435   1.267       .  A
C426        O431   1.264       .  A
C426        C441   1.452       .  S
O427        C433   1.270       .  A
O427       Cd430   2.430       .  S
C428        O436   1.267       .  A
C428        C703   1.452   1_554  S
C429        O434   1.268       .  A
C429        O432   1.267       .  A
C429        C513   1.435       .  S
Cd430       O437   2.434       .  S
Cd430       O436   2.425       .  S
Cd430       O435   2.425       .  S
Cd430       O431   2.414       .  S
Cd430       O434   2.453       .  S
Cd430       O432   2.451       .  S
C433        O437   1.271       .  A
O438        C441   1.264       .  A
O438       Cd443   2.416       .  S
C439        O448   1.266       .  A
C439        O444   1.264       .  A
C439        C560   1.452       .  S
O440        C446   1.270       .  A
O440       Cd443   2.436       .  S
C441        O449   1.266       .  A
C442        O447   1.268       .  A
C442        O445   1.268       .  A
C442        C521   1.436       .  S
Cd443       O450   2.438       .  S
Cd443       O449   2.422       .  S
Cd443       O448   2.421       .  S
Cd443       O444   2.417       .  S
Cd443       O447   2.454       .  S
Cd443       O445   2.453       .  S
C446        O450   1.271       .  A
C451        C505   1.468       .  S
C451        C507   1.468       .  S
C451        C509   1.526       .  S
C451        C512   1.525       .  S
C452        C510   1.526   1_545  S
C452        C511   1.525   1_545  S
C452        C514   1.468       .  S
C452        C515   1.468       .  S
O453        C456   1.264       .  A
O453       Cd458   2.410       .  S
C454        O463   1.267       .  A
C454        O459   1.264       .  A
C454        C733   1.452   1_554  S
O455        C461   1.268       .  A
O455       Cd458   2.453       .  S
C456        O464   1.266       .  A
C456        C467   1.453       .  S
C457        O462   1.271       .  A
C457        O460   1.270       .  A
C457        C487   1.462       .  S
Cd458       O465   2.452       .  S
Cd458       O464   2.426       .  S
Cd458       O463   2.424       .  S
Cd458       O459   2.414       .  S
Cd458       O462   2.433       .  S
Cd458       O460   2.432       .  S
C461        O465   1.268       .  A
C461        C520   1.436       .  S
O466        C469   1.264       .  A
O466       Cd471   2.413       .  S
C467        O476   1.266       .  A
C467        O472   1.264       .  A
O468        C474   1.268       .  A
O468       Cd471   2.451       .  S
C469        O477   1.266       .  A
C469        C586   1.452       .  S
C470        O475   1.270       .  A
C470        O473   1.270       .  A
Cd471       O478   2.452       .  S
Cd471       O477   2.421       .  S
Cd471       O476   2.420       .  S
Cd471       O472   2.421       .  S
Cd471       O475   2.435       .  S
Cd471       O473   2.437       .  S
C474        O478   1.268       .  A
C474        C506   1.436       .  S
O479        C482   1.264       .  A
O479       Cd484   2.413       .  S
C480        O489   1.266       .  A
C480        O485   1.264       .  A
C480        C759   1.453   1_554  S
O481        C487   1.270       .  A
O481       Cd484   2.432       .  S
C482        O490   1.266       .  A
C482        C493   1.452       .  S
C483        O488   1.268       .  A
C483        O486   1.268       .  A
C483        C518   1.436       .  S
Cd484       O491   2.433       .  S
Cd484       O490   2.424       .  S
Cd484       O489   2.425       .  S
Cd484       O485   2.413       .  S
Cd484       O488   2.453       .  S
Cd484       O486   2.453       .  S
C487        O491   1.270       .  A
O492        C495   1.264       .  A
O492       Cd497   2.415       .  S
C493        O502   1.266       .  A
C493        O498   1.264       .  A
O494        C500   1.270       .  A
O494       Cd497   2.434       .  S
C495        O503   1.266       .  A
C495        C612   1.452       .  S
C496        O501   1.268       .  A
C496        O499   1.267       .  A
C496        C508   1.436       .  S
Cd497       O504   2.437       .  S
Cd497       O503   2.422       .  S
Cd497       O502   2.422       .  S
Cd497       O498   2.415       .  S
Cd497       O501   2.454       .  S
Cd497       O499   2.450       .  S
C500        O504   1.271       .  A
C505        C506   1.207       .  T
C507        C508   1.207       .  T
C509        C642   1.244       .  T
C510        C773   1.243   1_554  T
C511        C512   1.243       .  T
C513        C514   1.207       .  T
C515        C516   1.207       .  T
C517        C518   1.207       .  T
C519        C520   1.207       .  T
C521        C522   1.208       .  T
C523        C524   1.208       .  T
C527        C528   1.244       .  T
C529        C655   1.468   1_455  S
C529        C658   1.526       .  S
C530        C649   1.469       .  S
C530        C657   1.526       .  S
C530        C659   1.526       .  S
O531        C534   1.264       .  A
O531       Cd536   2.411       .  S
C532        O541   1.266       .  A
C532        O537   1.264       .  A
C532        C547   1.453       .  S
O533        C539   1.268       .  A
O533       Cd536   2.454       .  S
C534        O542   1.266       .  A
C535        O540   1.270       .  A
C535        O538   1.270       .  A
Cd536       O543   2.453       .  S
Cd536       O542   2.423       .  S
Cd536       O541   2.421       .  S
Cd536       O537   2.422       .  S
Cd536       O540   2.435       .  S
Cd536       O538   2.438       .  S
C539        O543   1.268       .  A
C539        C648   1.436       .  S
O544        C547   1.264       .  A
O544       Cd549   2.409       .  S
C545        O554   1.267       .  A
C545        O550   1.264       .  A
C545        C666   1.452       .  S
O546        C552   1.267       .  A
O546       Cd549   2.453       .  S
C547        O555   1.266       .  A
C548        O553   1.270       .  A
C548        O551   1.270       .  A
C548        C578   1.463       .  S
Cd549       O556   2.454       .  S
Cd549       O555   2.428       .  S
Cd549       O554   2.421       .  S
Cd549       O550   2.418       .  S
Cd549       O553   2.432       .  S
Cd549       O551   2.436       .  S
C552        O556   1.268       .  A
C552        C656   1.436       .  S
O557        C560   1.264       .  A
O557       Cd562   2.413       .  S
C558        O567   1.267       .  A
C558        O563   1.263       .  A
C558        C573   1.452       .  S
O559        C565   1.270       .  A
O559       Cd562   2.434       .  S
C560        O568   1.266       .  A
C561        O566   1.268       .  A
C561        O564   1.267       .  A
C561        C645   1.436       .  S
Cd562       O569   2.438       .  S
Cd562       O568   2.424       .  S
Cd562       O567   2.421       .  S
Cd562       O563   2.417       .  S
Cd562       O566   2.455       .  S
Cd562       O564   2.452       .  S
C565        O569   1.271       .  A
O570        C573   1.264       .  A
O570       Cd575   2.410       .  S
C571        O580   1.267       .  A
C571        O576   1.264       .  A
C571        C692   1.452       .  S
O572        C578   1.270       .  A
O572       Cd575   2.432       .  S
C573        O581   1.267       .  A
C574        O579   1.268       .  A
C574        O577   1.267       .  A
C574        C653   1.436       .  S
Cd575       O582   2.437       .  S
Cd575       O581   2.426       .  S
Cd575       O580   2.423       .  S
Cd575       O576   2.415       .  S
Cd575       O579   2.454       .  S
Cd575       O577   2.453       .  S
C578        O582   1.271       .  A
C583        C637   1.468       .  S
C583        C639   1.468       .  S
C583        C641   1.525       .  S
C583        C644   1.526       .  S
C584        C642   1.526   1_545  S
C584        C643   1.526   1_545  S
C584        C646   1.469       .  S
C584        C647   1.469       .  S
O585        C588   1.263       .  A
O585       Cd590   2.411       .  S
C586        O595   1.266       .  A
C586        O591   1.264       .  A
O587        C593   1.268       .  A
O587       Cd590   2.455       .  S
C588        O596   1.267       .  A
C588        C599   1.452       .  S
C589        O594   1.270       .  A
C589        O592   1.270       .  A
C589        C619   1.463       .  S
Cd590       O597   2.452       .  S
Cd590       O596   2.424       .  S
Cd590       O595   2.422       .  S
Cd590       O591   2.417       .  S
Cd590       O594   2.435       .  S
Cd590       O592   2.434       .  S
C593        O597   1.268       .  A
C593        C652   1.436       .  S
O598        C601   1.264       .  A
O598       Cd603   2.411       .  S
C599        O608   1.266       .  A
C599        O604   1.264       .  A
O600        C606   1.268       .  A
O600       Cd603   2.453       .  S
C601        O609   1.266       .  A
C601        C718   1.453       .  S
C602        O607   1.271       .  A
C602        O605   1.270       .  A
Cd603       O610   2.451       .  S
Cd603       O609   2.426       .  S
Cd603       O608   2.421       .  S
Cd603       O604   2.415       .  S
Cd603       O607   2.434       .  S
Cd603       O605   2.432       .  S
C606        O610   1.267       .  A
C606        C638   1.436       .  S
O611        C614   1.264       .  A
O611       Cd616   2.417       .  S
C612        O621   1.266       .  A
C612        O617   1.264       .  A
O613        C619   1.270       .  A
O613       Cd616   2.434       .  S
C614        O622   1.266       .  A
C614        C625   1.452       .  S
C615        O620   1.268       .  A
C615        O618   1.268       .  A
C615        C650   1.436       .  S
Cd616       O623   2.435       .  S
Cd616       O622   2.423       .  S
Cd616       O621   2.420       .  S
Cd616       O617   2.414       .  S
Cd616       O620   2.453       .  S
Cd616       O618   2.452       .  S
C619        O623   1.270       .  A
O624        C627   1.264       .  A
O624       Cd629   2.413       .  S
C625        O634   1.266       .  A
C625        O630   1.264       .  A
O626        C632   1.270       .  A
O626       Cd629   2.433       .  S
C627        O635   1.266       .  A
C627        C744   1.452       .  S
C628        O633   1.268       .  A
C628        O631   1.268       .  A
C628        C640   1.436       .  S
Cd629       O636   2.433       .  S
Cd629       O635   2.424       .  S
Cd629       O634   2.423       .  S
Cd629       O630   2.413       .  S
Cd629       O633   2.451       .  S
Cd629       O631   2.453       .  S
C632        O636   1.270       .  A
C637        C638   1.207       .  T
C639        C640   1.207       .  T
C641        C774   1.243       .  T
C643        C644   1.244       .  T
C645        C646   1.208       .  T
C647        C648   1.208       .  T
C649        C650   1.208       .  T
C651        C652   1.208       .  T
C653        C654   1.207       .  T
C655        C656   1.207       .  T
C659        C660   1.244       .  T
C661        C787   1.469   1_455  S
C661        C790   1.526       .  S
C662        C781   1.469       .  S
C662        C789   1.526       .  S
C662        C791   1.526       .  S
O663        C666   1.263       .  A
O663       Cd668   2.410       .  S
C664        O673   1.266       .  A
C664        O669   1.264       .  A
C664        C679   1.452       .  S
O665        C671   1.268       .  A
O665       Cd668   2.453       .  S
C666        O674   1.267       .  A
C667        O672   1.270       .  A
C667        O670   1.270       .  A
Cd668       O675   2.451       .  S
Cd668       O674   2.425       .  S
Cd668       O673   2.420       .  S
Cd668       O669   2.418       .  S
Cd668       O672   2.434       .  S
Cd668       O670   2.435       .  S
C671        O675   1.267       .  A
C671        C780   1.436       .  S
O676        C679   1.264       .  A
O676       Cd681   2.409       .  S
C677        O686   1.266       .  A
C677        O682   1.263       .  A
O678        C684   1.268       .  A
O678       Cd681   2.453       .  S
C679        O687   1.266       .  A
C680        O685   1.271       .  A
C680        O683   1.270       .  A
C680        C710   1.463       .  S
Cd681       O688   2.454       .  S
Cd681       O687   2.422       .  S
Cd681       O686   2.421       .  S
Cd681       O682   2.422       .  S
Cd681       O685   2.436       .  S
Cd681       O683   2.436       .  S
C684        O688   1.268       .  A
C684        C788   1.436       .  S
O689        C692   1.264       .  A
O689       Cd694   2.414       .  S
C690        O699   1.266       .  A
C690        O695   1.264       .  A
C690        C705   1.452       .  S
O691        C697   1.270       .  A
O691       Cd694   2.434       .  S
C692        O700   1.266       .  A
C693        O698   1.268       .  A
C693        O696   1.268       .  A
C693        C777   1.435       .  S
Cd694       O701   2.436       .  S
Cd694       O700   2.423       .  S
Cd694       O699   2.419       .  S
Cd694       O695   2.417       .  S
Cd694       O698   2.451       .  S
Cd694       O696   2.451       .  S
C697        O701   1.271       .  A
O702        C705   1.264       .  A
O702       Cd707   2.412       .  S
C703        O712   1.267       .  A
C703        O708   1.263       .  A
O704        C710   1.270       .  A
O704       Cd707   2.435       .  S
C705        O713   1.266       .  A
C706        O711   1.268       .  A
C706        O709   1.268       .  A
C706        C785   1.437       .  S
Cd707       O714   2.436       .  S
Cd707       O713   2.424       .  S
Cd707       O712   2.421       .  S
Cd707       O708   2.416       .  S
Cd707       O711   2.456       .  S
Cd707       O709   2.452       .  S
C710        O714   1.270       .  A
C715        C769   1.469       .  S
C715        C771   1.468       .  S
C715        C773   1.526       .  S
C715        C776   1.526       .  S
C716        C774   1.525   1_545  S
C716        C775   1.526   1_545  S
C716        C778   1.468       .  S
C716        C779   1.468       .  S
O717        C720   1.264       .  A
O717       Cd722   2.414       .  S
C718        O727   1.266       .  A
C718        O723   1.264       .  A
O719        C725   1.268       .  A
O719       Cd722   2.453       .  S
C720        O728   1.266       .  A
C720        C731   1.453       .  S
C721        O726   1.270       .  A
C721        O724   1.270       .  A
C721        C751   1.463       .  S
Cd722       O729   2.452       .  S
Cd722       O728   2.424       .  S
Cd722       O727   2.420       .  S
Cd722       O723   2.419       .  S
Cd722       O726   2.435       .  S
Cd722       O724   2.437       .  S
C725        O729   1.268       .  A
C725        C784   1.436       .  S
O730        C733   1.263       .  A
O730       Cd735   2.413       .  S
C731        O740   1.266       .  A
C731        O736   1.264       .  A
O732        C738   1.268       .  A
O732       Cd735   2.455       .  S
C733        O741   1.267       .  A
C734        O739   1.270       .  A
C734        O737   1.270       .  A
Cd735       O742   2.452       .  S
Cd735       O741   2.423       .  S
Cd735       O740   2.422       .  S
Cd735       O736   2.419       .  S
Cd735       O739   2.437       .  S
Cd735       O737   2.437       .  S
C738        O742   1.268       .  A
C738        C770   1.436       .  S
O743        C746   1.264       .  A
O743       Cd748   2.415       .  S
C744        O753   1.267       .  A
C744        O749   1.264       .  A
O745        C751   1.270       .  A
O745       Cd748   2.434       .  S
C746        O754   1.266       .  A
C746        C757   1.453       .  S
C747        O752   1.268       .  A
C747        O750   1.268       .  A
C747        C782   1.436       .  S
Cd748       O755   2.437       .  S
Cd748       O754   2.425       .  S
Cd748       O753   2.421       .  S
Cd748       O749   2.414       .  S
Cd748       O752   2.454       .  S
Cd748       O750   2.452       .  S
C751        O755   1.271       .  A
O756        C759   1.264       .  A
O756       Cd761   2.418       .  S
C757        O766   1.266       .  A
C757        O762   1.264       .  A
O758        C764   1.270       .  A
O758       Cd761   2.436       .  S
C759        O767   1.266       .  A
C760        O765   1.268       .  A
C760        O763   1.268       .  A
C760        C772   1.436       .  S
Cd761       O768   2.438       .  S
Cd761       O767   2.422       .  S
Cd761       O766   2.420       .  S
Cd761       O762   2.417       .  S
Cd761       O765   2.454       .  S
Cd761       O763   2.453       .  S
C764        O768   1.271       .  A
C769        C770   1.208       .  T
C771        C772   1.208       .  T
C775        C776   1.244       .  T
C777        C778   1.207       .  T
C779        C780   1.207       .  T
C781        C782   1.208       .  T
C783        C784   1.207       .  T
C785        C786   1.208       .  T
C787        C788   1.208       .  T
C791        C792   1.244       .  T
