geometry optimzed in LAMMPS
_audit_creation_date              2020-11-30 
_audit_creation_method            'lammps2cif' 
_symmetry_space_group_name_H-M    'P1' 
_symmetry_Int_Tables_number       1 
_symmetry_cell_setting            triclinic 
loop_ 
_symmetry_equiv_pos_as_xyz 
  x,y,z 
_cell_length_a                    46.91309567 
_cell_length_b                    29.663665228594912 
_cell_length_c                    79.17337297494691 
_cell_angle_alpha                 90.08173894815259 
_cell_angle_beta                  90.21383700220593 
_cell_angle_gamma                 89.94467591130241 
loop_ 
_atom_site_label 
_atom_site_type_symbol 
_atom_site_fract_x 
_atom_site_fract_y 
_atom_site_fract_z 
_atom_site_charge 
N1          N  0.38546378  0.58706387  0.19813050    -0.26900
N2          N  0.38841277  0.59126172  0.18162181    -0.34800
C3          C  0.41398293  0.57476276  0.17710824     0.01400
C4          C  0.42796372  0.55970707  0.19149646     0.07400
C5          C  0.40908760  0.56789811  0.20457905    -0.05700
H6          H  0.42215828  0.57506492  0.16434801     0.08100
H7          H  0.41215063  0.56068839  0.21783956     0.09300
Cu8        Cu  0.35790262  0.62080318  0.16618973     0.44200
Cu9        Cu  0.34997676  0.60941007  0.21123830     0.42000
Cu10       Cu  0.29390745  0.66262729  0.18630130     0.43900
N11         N  0.32424815  0.65018211  0.15320630    -0.34300
N12         N  0.30051010  0.66474969  0.16032445    -0.28600
C13         C  0.28309813  0.68118740  0.14820983    -0.04700
C14         C  0.29674154  0.67706439  0.13275980     0.07500
C15         C  0.32274496  0.65731301  0.13649300     0.01300
H16         H  0.26242956  0.69604894  0.15056717     0.09000
H17         H  0.33938291  0.64843754  0.12766200     0.08100
N18         N  0.29277315  0.65567554  0.21246009    -0.35800
N19         N  0.31297399  0.63600090  0.22150329    -0.28000
C20         C  0.30512694  0.63570607  0.23783433    -0.03200
C21         C  0.27855215  0.65595405  0.23922085     0.05400
C22         C  0.27161063  0.66852800  0.22281342     0.03500
H23         H  0.31758584  0.62070281  0.24788691     0.08600
H24         H  0.25265566  0.68586364  0.21855054     0.07500
C25         C  0.26429995  0.71544262  0.06400360     0.03500
C26         C  0.26196646  0.67660853  0.05401633    -0.12700
C27         C  0.25994933  0.68000275  0.03639199     0.01000
C28         C  0.25896008  0.72264853  0.02883253    -0.11200
C29         C  0.26120162  0.76188841  0.03868129     0.03500
C30         C  0.26388131  0.75802442  0.05631735    -0.10600
H31         H  0.26355337  0.64369286  0.05988562     0.09100
H32         H  0.25682565  0.72516633  0.01523242     0.06600
H33         H  0.26659902  0.78797689  0.06400949     0.06400
N34         N  0.59158381  0.49520434  0.19905715    -0.26900
N35         N  0.59071680  0.49643375  0.18239514    -0.34800
C36         C  0.56363679  0.50250122  0.17734185     0.01400
C37         C  0.54639574  0.50490137  0.19150732     0.07400
C38         C  0.56500376  0.50037169  0.20507004    -0.05700
H39         H  0.55735691  0.50671170  0.16429608     0.08100
H40         H  0.55974757  0.50139761  0.21835554     0.09300
Cu41       Cu  0.62638831  0.49192318  0.16718909     0.44200
Cu42       Cu  0.62919544  0.48934097  0.21263112     0.42000
Cu43       Cu  0.69444166  0.48046950  0.18765901     0.43900
N44         N  0.66459797  0.48876053  0.15426902    -0.34300
N45         N  0.68966528  0.48396687  0.16169186    -0.28600
C46         C  0.71017134  0.48492840  0.14986060    -0.04700
C47         C  0.69738201  0.49120967  0.13421984     0.07500
C48         C  0.66841304  0.49301264  0.13755269     0.01300
H49         H  0.73275977  0.48270956  0.15253295     0.09000
H50         H  0.65119548  0.49700628  0.12857268     0.08100
N51         N  0.69342393  0.48430656  0.21377068    -0.35800
N52         N  0.66988310  0.48720027  0.22280823    -0.28000
C53         C  0.67686442  0.48903462  0.23926834    -0.03200
C54         C  0.70635249  0.48753103  0.24075771     0.05400
C55         C  0.71599937  0.48452943  0.22423603     0.03500
H56         H  0.66130968  0.49034230  0.24927063     0.08600
H57         H  0.73785945  0.48285608  0.22000175     0.07500
C58         C  0.74963747  0.49801383  0.06833225     0.03500
C59         C  0.75592723  0.53848726  0.06001482    -0.12700
C60         C  0.76361143  0.53834085  0.04290856     0.01000
C61         C  0.76475409  0.49732171  0.03409203    -0.11200
C62         C  0.75880500  0.45671074  0.04235419     0.03500
C63         C  0.75146598  0.45710746  0.05949214    -0.10600
H64         H  0.75373907  0.57021184  0.06669513     0.09100
H65         H  0.77005811  0.49700704  0.02077583     0.06600
H66         H  0.74578658  0.42583707  0.06569021     0.06400
N67         N  0.11819847  0.91491454  0.84356434    -0.26900
N68         N  0.11687494  0.92097015  0.86005318    -0.34800
C69         C  0.09105683  0.90889121  0.86560899     0.01400
C70         C  0.07515787  0.89380267  0.85199030     0.07400
C71         C  0.09300781  0.89855654  0.83813888    -0.05700
H72         H  0.08468357  0.91079931  0.87868806     0.08100
H73         H  0.08841197  0.88927207  0.82519442     0.09300
Cu74       Cu  0.15073464  0.94066136  0.87476495     0.44200
Cu75       Cu  0.15544515  0.92638931  0.83014634     0.42000
Cu76       Cu  0.21946655  0.95169969  0.85647058     0.43900
N77         N  0.18668566  0.95296098  0.88887055    -0.34300
N78         N  0.21248913  0.95672196  0.88244627    -0.28600
C79         C  0.23114900  0.96363553  0.89519768    -0.04700
C80         C  0.21612854  0.96431182  0.91032554     0.07500
C81         C  0.18802925  0.95737034  0.90570224     0.01300
H82         H  0.25379302  0.96851876  0.89350835     0.09000
H83         H  0.16980128  0.95502643  0.91398455     0.08100
N84         N  0.21943223  0.94301378  0.83026729    -0.35800
N85         N  0.19651153  0.93495501  0.82091930    -0.28000
C86         C  0.20446925  0.92938898  0.80474865    -0.03200
C87         C  0.23378555  0.93380462  0.80379433     0.05400
C88         C  0.24253191  0.94233931  0.82022651     0.03500
H89         H  0.19005871  0.92036786  0.79459796     0.08600
H90         H  0.26419893  0.94678235  0.82464255     0.07500
C91         C  0.25120862  0.97903362  0.98017498     0.03500
C92         C  0.25466724  0.93765904  0.98847611    -0.12700
C93         C  0.25925876  0.93613599  0.00598690     0.01000
C94         C  0.26128788  0.97658160  0.01512065    -0.11200
C95         C  0.25818150  0.01819536  0.00695350     0.03500
C96         C  0.25316541  0.01932058  0.98945367    -0.10600
H97         H  0.25243776  0.90652950  0.98140408     0.09100
H98         H  0.26517918  0.97573162  0.02862015     0.06600
H99         H  0.25024402  0.05139706  0.98313953     0.06400
N100        N  0.91873675  0.79181807  0.84553493    -0.26900
N101        N  0.91934620  0.79577267  0.86211917    -0.34800
C102        C  0.94441128  0.81341107  0.86689968     0.01400
C103        C  0.96061368  0.82097117  0.85259488     0.07400
C104        C  0.94360465  0.80661390  0.83924181    -0.05700
H105        H  0.95021988  0.82046534  0.87987012     0.08100
H106        H  0.94886267  0.80621742  0.82596407     0.09300
Cu107      Cu  0.88628719  0.77626767  0.87736710     0.44200
Cu108      Cu  0.88326846  0.76784148  0.83281491     0.42000
Cu109      Cu  0.82104318  0.73599220  0.85902354     0.43900
N110        N  0.85178622  0.75632086  0.89136081    -0.34300
N111        N  0.82729565  0.74231342  0.88502081    -0.28600
C112        C  0.80890574  0.73570403  0.89784835    -0.04700
C113        C  0.82270392  0.74612172  0.91297763     0.07500
C114        C  0.84991725  0.75865035  0.90818984     0.01300
H115        H  0.78690225  0.72594594  0.89612150     0.09000
H116        H  0.86720295  0.76970216  0.91625164     0.08100
N117        N  0.82190415  0.73575775  0.83265826    -0.35800
N118        N  0.84409759  0.74752057  0.82340953    -0.28000
C119        C  0.83682058  0.74591558  0.80699392    -0.03200
C120        C  0.80867382  0.73201275  0.80564589     0.05400
C121        C  0.80000753  0.72601579  0.82227238     0.03500
H122        H  0.85092490  0.75602812  0.79694053     0.08600
H123        H  0.77916431  0.71590801  0.82663131     0.07500
C124        C  0.78417729  0.75091902  0.98248437     0.03500
C125        C  0.78075296  0.70968353  0.99085646    -0.12700
C126        C  0.77586760  0.70842057  0.00832531     0.01000
C127        C  0.77479339  0.74895115  0.01749430    -0.11200
C128        C  0.77752090  0.79046380  0.00920109     0.03500
C129        C  0.78175599  0.79123574  0.99168599    -0.10600
H130        H  0.78317703  0.67843377  0.98390305     0.09100
H131        H  0.77156201  0.74825174  0.03104072     0.06600
H132        H  0.78421514  0.82329074  0.98532269     0.06400
N133        N  0.41024786  0.39518302  0.83668513    -0.26900
N134        N  0.41285519  0.39945719  0.85321401    -0.34800
C135        C  0.43845206  0.38380904  0.85803170     0.01400
C136        C  0.45293779  0.36916048  0.84384278     0.07400
C137        C  0.43435928  0.37693598  0.83047234    -0.05700
H138        H  0.44595395  0.38318826  0.87096719     0.08100
H139        H  0.43767771  0.36871521  0.81731208     0.09300
Cu140      Cu  0.38117995  0.42495610  0.86856597     0.44200
Cu141      Cu  0.37282449  0.41214877  0.82420398     0.42000
Cu142      Cu  0.31115231  0.44201591  0.85126474     0.43900
N143        N  0.34668796  0.44529513  0.88281773    -0.34300
N144        N  0.32058309  0.45053213  0.87683478    -0.28600
C145        C  0.30290350  0.45940001  0.88983443    -0.04700
C146        C  0.31877929  0.45955133  0.90471402     0.07500
C147        C  0.34644609  0.45077878  0.89962308     0.01300
H148        H  0.28005533  0.46296168  0.88858830     0.09000
H149        H  0.36504429  0.44692058  0.90760632     0.08100
N150        N  0.30970417  0.43504256  0.82504047    -0.35800
N151        N  0.33201072  0.42588591  0.81542426    -0.28000
C152        C  0.32368668  0.42500563  0.79916621    -0.03200
C153        C  0.29471830  0.43346583  0.79841896     0.05400
C154        C  0.28657506  0.43976134  0.81508050     0.03500
H155        H  0.33763155  0.41752115  0.78867435     0.08600
H156        H  0.26548841  0.44774955  0.81967716     0.07500
C157        C  0.28332865  0.46786982  0.97481129     0.03500
C158        C  0.27853768  0.50990197  0.98251297    -0.12700
C159        C  0.27217717  0.51267781  0.99981939     0.01000
C160        C  0.27103720  0.47299960  0.00938539    -0.11200
C161        C  0.27436336  0.43070518  0.00177160     0.03500
C162        C  0.28073536  0.42835365  0.98448147    -0.10600
H163        H  0.28009767  0.54042789  0.97507699     0.09100
H164        H  0.26773911  0.47501754  0.02290175     0.06600
H165        H  0.28339133  0.39575265  0.97849534     0.06400
N166        N  0.61208044  0.27726421  0.84069078    -0.26900
N167        N  0.60985120  0.27744791  0.85728729    -0.34800
C168        C  0.58335909  0.28997704  0.86155241     0.01400
C169        C  0.56781021  0.29766771  0.84689347     0.07400
C170        C  0.58691006  0.28952122  0.83387895    -0.05700
H171        H  0.57644258  0.29450813  0.87444717     0.08100
H172        H  0.58292308  0.29248719  0.82046151     0.09300
Cu173      Cu  0.64331741  0.26247970  0.87334964     0.44200
Cu174      Cu  0.65019054  0.26258628  0.82886809     0.42000
Cu175      Cu  0.71349035  0.24514002  0.85656319     0.43900
N176        N  0.67890724  0.25155021  0.88821661    -0.34300
N177        N  0.70498506  0.24598200  0.88235148    -0.28600
C178        C  0.72311232  0.24214580  0.89553673    -0.04700
C179        C  0.70759173  0.24581049  0.91040502     0.07500
C180        C  0.67960530  0.25122515  0.90514227     0.01300
H181        H  0.74594337  0.23812619  0.89437748     0.09000
H182        H  0.66087250  0.25468096  0.91293967     0.08100
N183        N  0.71398858  0.24546388  0.83025354    -0.35800
N184        N  0.69128013  0.25109991  0.82050352    -0.28000
C185        C  0.69925133  0.24937250  0.80424793    -0.03200
C186        C  0.72838496  0.24267251  0.80362587     0.05400
C187        C  0.73701126  0.24016333  0.82036535     0.03500
H188        H  0.68486688  0.25354227  0.79365072     0.08600
H189        H  0.75833901  0.23427777  0.82509300     0.07500
C190        C  0.74927593  0.24506125  0.97950162     0.03500
C191        C  0.75491776  0.20504709  0.98839529    -0.12700
C192        C  0.76144886  0.20645091  0.00574013     0.01000
C193        C  0.76252243  0.24823989  0.01405460    -0.11200
C194        C  0.75711312  0.28853285  0.00533914     0.03500
C195        C  0.75108263  0.28656351  0.98798553    -0.10600
H196        H  0.75305036  0.17281948  0.98202879     0.09100
H197        H  0.76730224  0.24926783  0.02744505     0.06600
H198        H  0.74768863  0.31739911  0.98095857     0.06400
N199        N  0.11805129  0.21812921  0.20595957    -0.26900
N200        N  0.11478443  0.22492413  0.18960376    -0.34800
C201        C  0.08796612  0.21465876  0.18513392     0.01400
C202        C  0.07349441  0.20047581  0.19937718     0.07400
C203        C  0.09329167  0.20337573  0.21240190    -0.05700
H204        H  0.07998891  0.21579160  0.17230402     0.08100
H205        H  0.09019729  0.19523302  0.22556860     0.09300
Cu206      Cu  0.14751794  0.24342978  0.17387654     0.44200
Cu207      Cu  0.15669773  0.22652919  0.21818664     0.42000
Cu208      Cu  0.21886177  0.24441319  0.19136772     0.43900
N209        N  0.18369877  0.25049224  0.15954635    -0.34300
N210        N  0.20994539  0.24917437  0.16564172    -0.28600
C211        C  0.22835705  0.24946116  0.15262881    -0.04700
C212        C  0.21282820  0.25147859  0.13770114     0.07500
C213        C  0.18461398  0.25200764  0.14263238     0.01300
H214        H  0.25128417  0.24738737  0.15392462     0.09000
H215        H  0.16599458  0.25078968  0.13455119     0.08100
N216        N  0.22054961  0.23957367  0.21760228    -0.35800
N217        N  0.19787938  0.23359695  0.22720925    -0.28000
C218        C  0.20620012  0.22963688  0.24338754    -0.03200
C219        C  0.23560336  0.23325209  0.24413558     0.05400
C220        C  0.24394624  0.23947780  0.22749236     0.03500
H221        H  0.19190051  0.22192353  0.25366272     0.08600
H222        H  0.26550210  0.24237719  0.22281819     0.07500
C223        C  0.25158544  0.23314982  0.06880837     0.03500
C224        C  0.25622481  0.27211284  0.05920056    -0.12700
C225        C  0.26217919  0.26911988  0.04192589     0.01000
C226        C  0.26336056  0.22665910  0.03421539    -0.11200
C227        C  0.25973508  0.18704770  0.04367303     0.03500
C228        C  0.25375234  0.19060633  0.06104996    -0.10600
H229        H  0.25493802  0.30495015  0.06518103     0.09100
H230        H  0.26625465  0.22464188  0.02066937     0.06600
H231        H  0.25011558  0.16046862  0.06844093     0.06400
N232        N  0.91656999  0.10338721  0.20595089    -0.26900
N233        N  0.91791266  0.10237956  0.18929441    -0.34800
C234        C  0.94309706  0.11899851  0.18430416     0.01400
C235        C  0.95847823  0.13105456  0.19852435     0.07400
C236        C  0.94112860  0.12033809  0.21205285    -0.05700
H237        H  0.94981366  0.12129760  0.17128054     0.08100
H238        H  0.94582011  0.12515195  0.22532161     0.09300
Cu239      Cu  0.88584066  0.07805165  0.17403877     0.44200
Cu240      Cu  0.88082275  0.08281073  0.21923105     0.42000
Cu241      Cu  0.81922635  0.04914068  0.19329026     0.43900
N242        N  0.85155054  0.05334258  0.16068731    -0.34300
N243        N  0.82649113  0.04421160  0.16742104    -0.28600
C244        C  0.80868283  0.03029189  0.15507262    -0.04700
C245        C  0.82361192  0.02994974  0.13998804     0.07500
C246        C  0.85062381  0.04494950  0.14405044     0.01300
H247        H  0.78669807  0.02060717  0.15695699     0.09000
H248        H  0.86818219  0.05050449  0.13548632     0.08100
N249        N  0.81975697  0.04993834  0.21960659    -0.35800
N250        N  0.84201323  0.06159983  0.22893241    -0.28000
C251        C  0.83540904  0.05664678  0.24534646    -0.03200
C252        C  0.80756993  0.04117772  0.24651430     0.05400
C253        C  0.79845638  0.03726842  0.22987718     0.03500
H254        H  0.85020792  0.06285123  0.25558085     0.08600
H255        H  0.77778568  0.02604936  0.22548801     0.07500
C256        C  0.78903122  0.00506807  0.07078518     0.03500
C257        C  0.78584557  0.04467935  0.06132473    -0.12700
C258        C  0.78141550  0.04271098  0.04379858     0.01000
C259        C  0.78021405  0.00050040  0.03578507    -0.11200
C260        C  0.78317583  0.96041196  0.04510320     0.03500
C261        C  0.78739866  0.96312062  0.06265896    -0.10600
H262        H  0.78747913  0.07713387  0.06756120     0.09100
H263        H  0.77668338  0.99887686  0.02226986     0.06600
H264        H  0.78904889  0.93267564  0.07012648     0.06400
N265        N  0.61884269  0.01258056  0.34176989    -0.26900
N266        N  0.61492824  0.00240875  0.35783236    -0.34800
C267        C  0.58740407  0.00898827  0.36173525     0.01400
C268        C  0.57325772  0.02441877  0.34747532     0.07400
C269        C  0.59392026  0.02608848  0.33502750    -0.05700
H270        H  0.57857478  0.00427413  0.37421191     0.08100
H271        H  0.59120555  0.03619618  0.32200681     0.09300
Cu272      Cu  0.64740697  0.98367814  0.37413662     0.44200
Cu273      Cu  0.65802225  0.00905025  0.32992888     0.42000
Cu274      Cu  0.71891474  0.99214912  0.35772938     0.43900
N275        N  0.68355818  0.97429806  0.38877833    -0.34300
N276        N  0.70981693  0.97878944  0.38303850    -0.28600
C277        C  0.72823789  0.97284126  0.39595388    -0.04700
C278        C  0.71278215  0.96408679  0.41052514     0.07500
C279        C  0.68452989  0.96515035  0.40538666     0.01300
H280        H  0.75115986  0.97428711  0.39471896     0.09000
H281        H  0.66591639  0.96080620  0.41324371     0.08100
N282        N  0.72198055  0.00007871  0.33158773    -0.35800
N283        N  0.69963453  0.00459367  0.32149143    -0.28000
C284        C  0.70859002  0.00765527  0.30541991    -0.03200
C285        C  0.73803291  0.00526662  0.30533817     0.05400
C286        C  0.74581920  0.00083109  0.32216046     0.03500
H287        H  0.69471163  0.01304053  0.29466602     0.08600
H288        H  0.76724715  0.99848330  0.32717981     0.07500
C289        C  0.74639990  0.94455744  0.48064378     0.03500
C290        C  0.74860212  0.90339435  0.48935190    -0.12700
C291        C  0.75185892  0.90279332  0.50698889     0.01000
C292        C  0.75378837  0.94362054  0.51587717    -0.11200
C293        C  0.75239414  0.98499009  0.50733558     0.03500
C294        C  0.74867515  0.98513964  0.48971854    -0.10600
H295        H  0.74684622  0.87186322  0.48250374     0.09100
H296        H  0.75581147  0.94311003  0.52951515     0.06600
H297        H  0.74691082  0.01696708  0.48308874     0.06400
N298        N  0.41339215  0.11137129  0.34058473    -0.26900
N299        N  0.41286667  0.10062638  0.35674406    -0.34800
C300        C  0.43794418  0.08236848  0.36117218     0.01400
C301        C  0.45529252  0.08123532  0.34708654     0.07400
C302        C  0.43909242  0.10038223  0.33425088    -0.05700
H303        H  0.44317273  0.07145213  0.37383525     0.08100
H304        H  0.44530881  0.10521471  0.32123440     0.09300
Cu305      Cu  0.37811895  0.11071636  0.37207008     0.44200
Cu306      Cu  0.37796100  0.13828831  0.32852043     0.42000
Cu307      Cu  0.31208338  0.14871759  0.35449322     0.43900
N308        N  0.34202541  0.12076931  0.38627557    -0.34300
N309        N  0.31727827  0.13421530  0.38010407    -0.28600
C310        C  0.29850465  0.13742747  0.39292051    -0.04700
C311        C  0.31222058  0.12512898  0.40785200     0.07500
C312        C  0.33987642  0.11526148  0.40301240     0.01300
H313        H  0.27658703  0.14813088  0.39147151     0.09000
H314        H  0.35765115  0.10611179  0.41102146     0.08100
N315        N  0.31497242  0.16278220  0.32871647    -0.35800
N316        N  0.33852887  0.15971213  0.31964988    -0.28000
C317        C  0.33281088  0.17215002  0.30368194    -0.03200
C318        C  0.30416642  0.18351050  0.30242042     0.05400
C319        C  0.29366919  0.17709921  0.31864311     0.03500
H320        H  0.34880223  0.17338841  0.29393187     0.08600
H321        H  0.27201922  0.18211781  0.32289149     0.07500
C322        C  0.27302001  0.13528219  0.47727376     0.03500
C323        C  0.26877916  0.17763901  0.48484264    -0.12700
C324        C  0.26328671  0.18121252  0.50222250     0.01000
C325        C  0.26182709  0.14192177  0.51208182    -0.11200
C326        C  0.26623130  0.09937824  0.50476535     0.03500
C327        C  0.27149060  0.09639991  0.48735661    -0.10600
H328        H  0.27108024  0.20805283  0.47742322     0.09100
H329        H  0.25797155  0.14457478  0.52552721     0.06600
H330        H  0.27469097  0.06354783  0.48166259     0.06400
N331        N  0.11160485  0.37390748  0.70089907    -0.26900
N332        N  0.11058913  0.36754137  0.68442156    -0.34800
C333        C  0.08543851  0.34939387  0.68018823     0.01400
C334        C  0.06928604  0.34448799  0.69466652     0.07400
C335        C  0.08676710  0.35998959  0.70766149    -0.05700
H336        H  0.07976058  0.33974636  0.66744620     0.08100
H337        H  0.08176352  0.36134081  0.72098003     0.09300
Cu338      Cu  0.14329579  0.38312394  0.66822360     0.44200
Cu339      Cu  0.14805432  0.39964436  0.71233374     0.42000
Cu340      Cu  0.21133067  0.41577556  0.68421625     0.43900
N341        N  0.17769516  0.39542338  0.65287694    -0.34300
N342        N  0.20322500  0.40669602  0.65849617    -0.28600
C343        C  0.22100815  0.40998120  0.64521018    -0.04700
C344        C  0.20575102  0.40039715  0.63050563     0.07500
C345        C  0.17835493  0.39141821  0.63601827     0.01300
H346        H  0.24345002  0.41762086  0.64632784     0.09000
H347        H  0.16005338  0.38245185  0.62838221     0.08100
N348        N  0.21149760  0.42198759  0.71050811    -0.35800
N349        N  0.18882448  0.41741658  0.72025501    -0.28000
C350        C  0.19679756  0.42186278  0.73646588    -0.03200
C351        C  0.22597321  0.42921169  0.73721353     0.05400
C352        C  0.23448858  0.42912511  0.72039633     0.03500
H353        H  0.18225634  0.41867692  0.74695289     0.08600
H354        H  0.25590245  0.43190242  0.71555579     0.07500
C355        C  0.23945264  0.39666884  0.56009100     0.03500
C356        C  0.24432927  0.35598398  0.55151129    -0.12700
C357        C  0.24936268  0.35555181  0.53404533     0.01000
C358        C  0.24988149  0.39650937  0.52516552    -0.11200
C359        C  0.24567258  0.43743896  0.53369393     0.03500
C360        C  0.24064059  0.43743092  0.55114749    -0.10600
H361        H  0.24366838  0.32445291  0.55839738     0.09100
H362        H  0.25387049  0.39666883  0.51169461     0.06600
H363        H  0.23672355  0.46902304  0.55763919     0.06400
N364        N  0.91280117  0.24308617  0.70400358    -0.26900
N365        N  0.91490309  0.23896794  0.68745050    -0.34800
C366        C  0.94097083  0.25220480  0.68263975     0.01400
C367        C  0.95618531  0.26564400  0.69682430     0.07400
C368        C  0.93755698  0.25924538  0.71018984    -0.05700
H369        H  0.94791742  0.25341820  0.66963790     0.08100
H370        H  0.94100753  0.26811174  0.72328949     0.09300
Cu371      Cu  0.88115157  0.22216088  0.67175838     0.44200
Cu372      Cu  0.87495948  0.23177412  0.71669933     0.42000
Cu373      Cu  0.81120331  0.21746941  0.69000608     0.43900
N374        N  0.84426336  0.21437815  0.65762304    -0.34300
N375        N  0.81845863  0.21246625  0.66420489    -0.28600
C376        C  0.79920864  0.20878152  0.65161172    -0.04700
C377        C  0.81366161  0.20861804  0.63635140     0.07500
C378        C  0.84217072  0.21239599  0.64071638     0.01300
H379        H  0.77638845  0.20785290  0.65345235     0.09000
H380        H  0.86014773  0.21388115  0.63221684     0.08100
N381        N  0.81065134  0.22331153  0.71615646    -0.35800
N382        N  0.83367225  0.22720770  0.72572549    -0.28000
C383        C  0.82574532  0.23034541  0.74196174    -0.03200
C384        C  0.79625163  0.22850153  0.74278197     0.05400
C385        C  0.78746799  0.22422027  0.72608625     0.03500
H386        H  0.84054252  0.23397200  0.75237893     0.08600
H387        H  0.76588520  0.22305052  0.72129991     0.07500
C388        C  0.77078666  0.20121584  0.56759061     0.03500
C389        C  0.76581639  0.15913918  0.55994578    -0.12700
C390        C  0.75886720  0.15614620  0.54266438     0.01000
C391        C  0.75680668  0.19592152  0.53311411    -0.11200
C392        C  0.76085890  0.23823239  0.54066660     0.03500
C393        C  0.76754847  0.24056123  0.55793889    -0.10600
H394        H  0.76824561  0.12864265  0.56732818     0.09100
H395        H  0.75332655  0.19387091  0.51960677     0.06600
H396        H  0.77073071  0.27317180  0.56383512     0.06400
N397        N  0.09338904  0.64752253  0.33927171    -0.26900
N398        N  0.09031979  0.65527786  0.35557843    -0.34800
C399        C  0.06353707  0.64536482  0.36014288     0.01400
C400        C  0.04876151  0.63053990  0.34601114     0.07400
C401        C  0.06844744  0.63263089  0.33295723    -0.05700
H402        H  0.05572803  0.64759698  0.37295499     0.08100
H403        H  0.06509290  0.62416391  0.31982147     0.09300
Cu404      Cu  0.12311947  0.67568250  0.37109737     0.44200
Cu405      Cu  0.13204780  0.65567494  0.32690842     0.42000
Cu406      Cu  0.19362510  0.68562721  0.35319476     0.43900
N407        N  0.15947256  0.68420993  0.38532887    -0.34300
N408        N  0.18544590  0.68744637  0.37904733    -0.28600
C409        C  0.20433363  0.68704564  0.39190988    -0.04700
C410        C  0.18939555  0.68301368  0.40693687     0.07500
C411        C  0.16104498  0.68145122  0.40220896     0.01300
H412        H  0.22722101  0.68668620  0.39033651     0.09000
H413        H  0.14286621  0.67661321  0.41037562     0.08100
N414        N  0.19532115  0.67644058  0.32710440    -0.35800
N415        N  0.17311450  0.66493281  0.31773535    -0.28000
C416        C  0.18156236  0.66010926  0.30163594    -0.03200
C417        C  0.21059863  0.66903804  0.30061501     0.05400
C418        C  0.21843924  0.67949286  0.31713987     0.03500
H419        H  0.16744563  0.65008576  0.29148670     0.08600
H420        H  0.23925111  0.68902483  0.32177241     0.07500
C421        C  0.23098847  0.65686643  0.47517119     0.03500
C422        C  0.23389402  0.61397055  0.48248681    -0.12700
C423        C  0.24242906  0.60926285  0.49942608     0.01000
C424        C  0.24898816  0.64804407  0.50888772    -0.11200
C425        C  0.24660691  0.69109159  0.50166290     0.03500
C426        C  0.23749396  0.69520837  0.48485120    -0.10600
H427        H  0.22967495  0.58418535  0.47496020     0.09100
H428        H  0.25543349  0.64482535  0.52199108     0.06600
H429        H  0.23455934  0.72845381  0.47945908     0.06400
N430        N  0.89051031  0.53758618  0.33922916    -0.26900
N431        N  0.89254386  0.53577752  0.35582980    -0.34800
C432        C  0.91765300  0.55304533  0.36075192     0.01400
C433        C  0.93234866  0.56627335  0.34650159     0.07400
C434        C  0.91458660  0.55569227  0.33302747    -0.05700
H435        H  0.92496927  0.55447118  0.37371547     0.08100
H436        H  0.91880258  0.56089816  0.31974841     0.09300
Cu437      Cu  0.86150312  0.50795436  0.37069441     0.44200
Cu438      Cu  0.85420545  0.51558368  0.32673561     0.42000
Cu439      Cu  0.79461535  0.47144700  0.35301293     0.43900
N440        N  0.82908023  0.48079999  0.38466852    -0.34300
N441        N  0.80418157  0.46764616  0.37861820    -0.28600
C442        C  0.78751551  0.45512023  0.39163287    -0.04700
C443        C  0.80288366  0.46089489  0.40653255     0.07500
C444        C  0.82912538  0.47698718  0.40149066     0.01300
H445        H  0.76551092  0.44482606  0.39034825     0.09000
H446        H  0.84689575  0.48652266  0.40946503     0.08100
N447        N  0.79291138  0.48187867  0.32706385    -0.35800
N448        N  0.81439430  0.49660030  0.31777344    -0.28000
C449        C  0.80586428  0.49952356  0.30160613    -0.03200
C450        C  0.77770369  0.48620337  0.30062019     0.05400
C451        C  0.77009369  0.47552014  0.31699482     0.03500
H452        H  0.81901949  0.51187516  0.29142586     0.08600
H453        H  0.74949598  0.46393516  0.32128534     0.07500
C454        C  0.76797180  0.44678835  0.47639894     0.03500
C455        C  0.76621299  0.40489907  0.48462065    -0.12700
C456        C  0.76000223  0.40295974  0.50191865     0.01000
C457        C  0.75517072  0.44281614  0.51095231    -0.11200
C458        C  0.75668492  0.48475605  0.50290740     0.03500
C459        C  0.76251323  0.48645632  0.48557941    -0.10600
H460        H  0.77086789  0.37408081  0.47779556     0.09100
H461        H  0.75047853  0.44108138  0.52432840     0.06600
H462        H  0.76359812  0.51889236  0.47933599     0.06400
N463        N  0.62203817  0.75887371  0.70663865    -0.26900
N464        N  0.61788873  0.74852400  0.69060665    -0.34800
C465        C  0.59146836  0.76104340  0.68603078     0.01400
C466        C  0.57819835  0.77976544  0.69994931     0.07400
C467        C  0.59817845  0.77775308  0.71284214    -0.05700
H468        H  0.58274855  0.75747707  0.67342907     0.08100
H469        H  0.59601105  0.79078303  0.72554170     0.09300
Cu470      Cu  0.64932638  0.72111199  0.67564318     0.44200
Cu471      Cu  0.66105719  0.74962348  0.71827562     0.42000
Cu472      Cu  0.72112965  0.70888292  0.69232502     0.43900
N473        N  0.68398906  0.70283312  0.66125060    -0.34300
N474        N  0.71053894  0.70008909  0.66682000    -0.28600
C475        C  0.72779224  0.69237637  0.65350789    -0.04700
C476        C  0.71107586  0.68947253  0.63901401     0.07500
C477        C  0.68351912  0.69645487  0.64448825     0.01300
H478        H  0.75076401  0.68975951  0.65427074     0.09000
H479        H  0.66456128  0.69927899  0.63674679     0.08100
N480        N  0.72306326  0.72037202  0.71840881    -0.35800
N481        N  0.70144970  0.73585636  0.72738750    -0.28000
C482        C  0.70951609  0.74016035  0.74357570    -0.03200
C483        C  0.73757746  0.72608426  0.74518753     0.05400
C484        C  0.74546369  0.71403611  0.72884759     0.03500
H485        H  0.69571862  0.75345135  0.75325888     0.08600
H486        H  0.76592520  0.70127292  0.72479263     0.07500
C487        C  0.73963220  0.68854326  0.56799529     0.03500
C488        C  0.74304767  0.73026580  0.55986320    -0.12700
C489        C  0.74763464  0.73239469  0.54234069     0.01000
C490        C  0.74867444  0.69227620  0.53294465    -0.11200
C491        C  0.74511791  0.65039678  0.54086008     0.03500
C492        C  0.74058496  0.64879685  0.55836992    -0.10600
H493        H  0.74177909  0.76116980  0.56713562     0.09100
H494        H  0.75222354  0.69366305  0.51944476     0.06600
H495        H  0.73789114  0.61647498  0.56452867     0.06400
N496        N  0.41961570  0.87007902  0.70535553    -0.26900
N497        N  0.42081479  0.86675811  0.68873594    -0.34800
C498        C  0.44756680  0.85650241  0.68416530     0.01400
C499        C  0.46422548  0.85322810  0.69859208     0.07400
C500        C  0.44568808  0.86189891  0.71182272    -0.05700
H501        H  0.45394437  0.84969820  0.67130132     0.08100
H502        H  0.45058218  0.86124456  0.72518282     0.09300
Cu503      Cu  0.38590707  0.87311487  0.67289450     0.44200
Cu504      Cu  0.38190471  0.88200531  0.71822956     0.42000
Cu505      Cu  0.31788314  0.89472966  0.69171622     0.43900
N506        N  0.34893424  0.88145577  0.65893203    -0.34300
N507        N  0.32385024  0.89058197  0.66565169    -0.28600
C508        C  0.30439745  0.89417486  0.65313692    -0.04700
C509        C  0.31794399  0.88654507  0.63780960     0.07500
C510        C  0.34615507  0.87854125  0.64207736     0.01300
H511        H  0.28195388  0.90044314  0.65513601     0.09000
H512        H  0.36351930  0.87126954  0.63353862     0.08100
N513        N  0.31790047  0.89454297  0.71808612    -0.35800
N514        N  0.34096921  0.89037514  0.72760512    -0.28000
C515        C  0.33348941  0.89314094  0.74396459    -0.03200
C516        C  0.30418619  0.89923276  0.74492640     0.05400
C517        C  0.29515695  0.89984832  0.72818680     0.03500
H518        H  0.34863265  0.89240620  0.75427565     0.08600
H519        H  0.27361495  0.90433893  0.72358263     0.07500
C520        C  0.27677307  0.88882899  0.56856488     0.03500
C521        C  0.27563756  0.93102543  0.56047195    -0.12700
C522        C  0.26960476  0.93387033  0.54313903     0.01000
C523        C  0.26430721  0.89449461  0.53386844    -0.11200
C524        C  0.26463655  0.85219515  0.54176527     0.03500
C525        C  0.27074167  0.84966972  0.55914198    -0.10600
H526        H  0.28050432  0.96149044  0.56747769     0.09100
H527        H  0.25975987  0.89690492  0.52046348     0.06600
H528        H  0.27143577  0.81707631  0.56525657     0.06400
C529        C  0.30553070  0.88539630  0.62050279    -0.05100
C530        C  0.31733243  0.85614406  0.60843003    -0.32500
C531        C  0.30750433  0.85579390  0.59170406     0.36700
C532        C  0.28573749  0.88570191  0.58660002    -0.05500
C533        C  0.27355651  0.91446979  0.59872500    -0.32400
C534        C  0.28304461  0.91415860  0.61557548     0.36600
H535        H  0.33448977  0.83349495  0.61191642     0.17000
O536        O  0.32062198  0.82811073  0.58020511    -0.59900
H537        H  0.25677198  0.93764722  0.59507773     0.17000
O538        O  0.27139729  0.94408326  0.62682195    -0.60000
H539        H  0.25278936  0.93083194  0.63003041     0.44000
H540        H  0.31368409  0.79731195  0.58279089     0.44000
C541        C  0.54967712  0.80071884  0.70034259    -0.05100
C542        C  0.54064914  0.82675773  0.68656419    -0.32500
C543        C  0.51342738  0.84587961  0.68622175     0.36700
C544        C  0.49428490  0.83796728  0.69959402    -0.05500
C545        C  0.50368668  0.81304401  0.71364656    -0.32400
C546        C  0.53114484  0.79446582  0.71408222     0.36600
H547        H  0.55488615  0.83269628  0.67605457     0.17000
O548        O  0.50588699  0.87243796  0.67276461    -0.59900
H549        H  0.48940811  0.80644683  0.72406702     0.17000
O550        O  0.53920701  0.76882491  0.72769021    -0.60000
H551        H  0.53461289  0.73732289  0.72447422     0.44000
H552        H  0.51135921  0.90348965  0.67610352     0.44000
C553        C  0.72014138  0.68538998  0.62117161    -0.05100
C554        C  0.74419189  0.70889803  0.61545095    -0.32500
C555        C  0.75106612  0.70966605  0.59822245     0.36700
C556        C  0.73390168  0.68642824  0.58642114    -0.05500
C557        C  0.71066651  0.66120731  0.59228079    -0.32400
C558        C  0.70361399  0.66080524  0.60944930     0.36600
H559        H  0.75715493  0.72795759  0.62427176     0.17000
O560        O  0.77449549  0.73346143  0.59304144    -0.59900
H561        H  0.69742463  0.64264811  0.58344903     0.17000
O562        O  0.68090600  0.63538800  0.61472888    -0.60000
H563        H  0.66368810  0.65151077  0.61063583     0.44000
H564        H  0.79036662  0.71135081  0.59305727     0.44000
C565        C  0.75343055  0.52692589  0.51272866    -0.05100
C566        C  0.73448236  0.56045371  0.50714797    -0.32500
C567        C  0.73149030  0.60091144  0.51613411     0.36700
C568        C  0.74743799  0.60805450  0.53102826    -0.05500
C569        C  0.76640957  0.57455009  0.53654360    -0.32400
C570        C  0.76958623  0.53436361  0.52750398     0.36600
H571        H  0.72182392  0.55511346  0.49584556     0.17000
O572        O  0.71216269  0.63246300  0.51065335    -0.59900
H573        H  0.77929349  0.57996889  0.54775157     0.17000
O574        O  0.78968993  0.50363832  0.53266293    -0.60000
H575        H  0.78162268  0.48919623  0.54287198     0.44000
H576        H  0.72085707  0.64627257  0.50050107     0.44000
C577        C  0.79325822  0.45641780  0.42425262    -0.05100
C578        C  0.80591049  0.48391198  0.43663829    -0.32500
C579        C  0.79831132  0.48029687  0.45357256     0.36700
C580        C  0.77700046  0.44962857  0.45849912    -0.05500
C581        C  0.76447977  0.42164830  0.44620746    -0.32400
C582        C  0.77243359  0.42488249  0.42917304     0.36600
H583        H  0.82189531  0.50856876  0.43326663     0.17000
O584        O  0.81229146  0.50646657  0.46525556    -0.59900
H585        H  0.74834056  0.39742480  0.44979731     0.17000
O586        O  0.76071093  0.39572760  0.41763218    -0.60000
H587        H  0.74116687  0.40723224  0.41551954     0.44000
H588        H  0.82876615  0.48804134  0.46903583     0.44000
C589        C  0.25185614  0.73199578  0.51197377    -0.05100
C590        C  0.23687753  0.73807043  0.52711622    -0.32500
C591        C  0.24065790  0.77706427  0.53688092     0.36700
C592        C  0.25990817  0.81064804  0.53162641    -0.05500
C593        C  0.27489371  0.80450000  0.51644661    -0.32400
C594        C  0.27087142  0.76572272  0.50660036     0.36600
H595        H  0.22168883  0.71287927  0.53120329     0.17000
O596        O  0.22431575  0.78319781  0.55103607    -0.59900
H597        H  0.29000350  0.82970689  0.51227291     0.17000
O598        O  0.28638742  0.76026760  0.49208026    -0.60000
H599        H  0.27705284  0.77997797  0.48359036     0.44000
H600        H  0.23201992  0.76181475  0.55952462     0.44000
C601        C  0.01865458  0.61508437  0.34546938    -0.05100
C602        C  0.99958491  0.63027556  0.35790828    -0.32500
C603        C  0.97134744  0.61529504  0.35820936     0.36700
C604        C  0.96155612  0.58467322  0.34589366    -0.05500
C605        C  0.98028704  0.57013119  0.33325294    -0.32400
C606        C  0.00869595  0.58451195  0.33309413     0.36600
H607        H  0.00645048  0.65412223  0.36745086     0.17000
O608        O  0.95345965  0.63112017  0.37054074    -0.59900
H609        H  0.97317898  0.54613632  0.32380938     0.17000
O610        O  0.02663022  0.56708432  0.32111915    -0.60000
H611        H  0.03562261  0.54045927  0.32652306     0.44000
H612        H  0.94504855  0.65913200  0.36584604     0.44000
C613        C  0.20083140  0.67569014  0.42416153    -0.05100
C614        C  0.18655118  0.64619778  0.43512231    -0.32500
C615        C  0.19630129  0.63923560  0.45162545     0.36700
C616        C  0.22075372  0.66208003  0.45751135    -0.05500
C617        C  0.23504197  0.69153270  0.44653380    -0.32400
C618        C  0.22542558  0.69811684  0.42994588     0.36600
H619        H  0.16772253  0.62828237  0.43088362     0.17000
O620        O  0.18139781  0.61070961  0.46196434    -0.59900
H621        H  0.25381763  0.70950527  0.45083066     0.17000
O622        O  0.23938702  0.72822522  0.41978838    -0.60000
H623        H  0.25680060  0.71225438  0.41597773     0.44000
H624        H  0.16791399  0.63030822  0.46820775     0.44000
C625        C  0.76039018  0.27988417  0.53030237    -0.05100
C626        C  0.78287654  0.31087336  0.53187361    -0.32500
C627        C  0.78300764  0.35070260  0.52248372     0.36700
C628        C  0.76073145  0.35979339  0.51107512    -0.05500
C629        C  0.73837115  0.32885729  0.50926737    -0.32400
C630        C  0.73800682  0.28909621  0.51884611     0.36600
H631        H  0.80046882  0.30415252  0.54041580     0.17000
O632        O  0.80522343  0.38037325  0.52432962    -0.59900
H633        H  0.72083834  0.33611792  0.50074461     0.17000
O634        O  0.71496741  0.26078826  0.51766395    -0.60000
H635        H  0.71692008  0.24539320  0.50660174     0.44000
H636        H  0.80032057  0.39895851  0.53432865     0.44000
C637        C  0.80169871  0.20728584  0.61898917    -0.05100
C638        C  0.81543055  0.23135434  0.60612219    -0.32500
C639        C  0.80544858  0.22984364  0.58947415     0.36700
C640        C  0.78115324  0.20403500  0.58533422    -0.05500
C641        C  0.76742551  0.17977123  0.59817719    -0.32400
C642        C  0.77738760  0.18149080  0.61491420     0.36600
H643        H  0.83411043  0.25147247  0.60895219     0.17000
O644        O  0.82008391  0.25293268  0.57726782    -0.59900
H645        H  0.74890415  0.15940050  0.59522719     0.17000
O646        O  0.76416740  0.15588665  0.62697459    -0.60000
H647        H  0.74648449  0.17253307  0.62982817     0.44000
H648        H  0.83353539  0.23068205  0.57238677     0.44000
C649        C  0.24559120  0.48031918  0.52429804    -0.05100
C650        C  0.22158011  0.49241304  0.51475910    -0.32500
C651        C  0.22048474  0.53392961  0.50635494     0.36700
C652        C  0.24370387  0.56404854  0.50745246    -0.05500
C653        C  0.26789996  0.55143091  0.51686681    -0.32400
C654        C  0.26895565  0.50985237  0.52520957     0.36600
H655        H  0.20337953  0.46999185  0.51413919     0.17000
O656        O  0.19596461  0.54597450  0.49799632    -0.59900
H657        H  0.28600253  0.57396763  0.51778040     0.17000
O658        O  0.29272037  0.49863448  0.53443694    -0.60000
H659        H  0.30377572  0.47798463  0.52708395     0.44000
H660        H  0.19579251  0.52764820  0.48750838     0.44000
C661        C  0.03984835  0.32624714  0.69569959    -0.05100
C662        C  0.03053624  0.30411087  0.71036690    -0.32500
C663        C  0.00332449  0.28446758  0.71107896     0.36700
C664        C  0.98483500  0.28696708  0.69699438    -0.05500
C665        C  0.99395925  0.31019136  0.68257268    -0.32400
C666        C  0.02088997  0.32996288  0.68188611     0.36600
H667        H  0.04463566  0.30091889  0.72116269     0.17000
O668        O  0.99542515  0.26204818  0.72544646    -0.59900
H669        H  0.97998774  0.31382927  0.67174560     0.17000
O670        O  0.02813155  0.35351459  0.66764895    -0.60000
H671        H  0.02297058  0.38527206  0.67010636     0.44000
H672        H  0.00009265  0.22994999  0.72327655     0.44000
C673        C  0.21577052  0.39848922  0.61268180    -0.05100
C674        C  0.20044999  0.37235795  0.60089809    -0.32500
C675        C  0.20824875  0.37103828  0.58387419     0.36700
C676        C  0.23166466  0.39635058  0.57820713    -0.05500
C677        C  0.24715734  0.42232683  0.58986598    -0.32400
C678        C  0.23957724  0.42324609  0.60699992     0.36600
H679        H  0.18221472  0.35269903  0.60480603     0.17000
O680        O  0.19190167  0.34680986  0.57268227    -0.59900
H681        H  0.26519044  0.44208788  0.58565330     0.17000
O682        O  0.25473300  0.45026364  0.61783242    -0.60000
H683        H  0.27259951  0.43349431  0.62022189     0.44000
H684        H  0.19725878  0.31483399  0.57451888     0.44000
C685        C  0.26974537  0.97773287  0.53435811    -0.05100
C686        C  0.24695982  0.00782477  0.53644713    -0.32500
C687        C  0.24547809  0.04763080  0.52693624     0.36700
C688        C  0.26726790  0.05807302  0.51534327    -0.05500
C689        C  0.29035387  0.02820075  0.51360243    -0.32400
C690        C  0.29165834  0.98833381  0.52297632     0.36600
H691        H  0.22983405  0.99967507  0.54506180     0.17000
O692        O  0.22220855  0.07525141  0.52865009    -0.59900
H693        H  0.30745339  0.03578894  0.50489554     0.17000
O694        O  0.31420715  0.95949964  0.52073444    -0.60000
H695        H  0.32848770  0.96857642  0.52935549     0.44000
H696        H  0.20839895  0.06470172  0.51999399     0.44000
C697        C  0.26026072  0.22623264  0.51017153    -0.05100
C698        C  0.24027801  0.25709299  0.50374083    -0.32500
C699        C  0.23686437  0.29966951  0.51117973     0.36700
C700        C  0.25365337  0.31196171  0.52523978    -0.05500
C701        C  0.27395675  0.28137030  0.53147396    -0.32400
C702        C  0.27728978  0.23878819  0.52409338     0.36600
H703        H  0.22688428  0.24778535  0.49311692     0.17000
O704        O  0.21598712  0.32799928  0.50524798    -0.59900
H705        H  0.28727375  0.29054162  0.54214928     0.17000
O706        O  0.29795926  0.21026913  0.53016335    -0.60000
H707        H  0.29039409  0.19849732  0.54097333     0.44000
H708        H  0.22378997  0.34116438  0.49472978     0.44000
C709        C  0.30077747  0.12524313  0.42537417    -0.05100
C710        C  0.27749290  0.15292133  0.42957614    -0.32500
C711        C  0.26786152  0.15616519  0.44632204     0.36700
C712        C  0.28157664  0.13151020  0.45923293    -0.05500
C713        C  0.30419277  0.10277553  0.45490584    -0.32400
C714        C  0.31345236  0.09889604  0.43822773     0.36600
H715        H  0.26698526  0.17286812  0.41994956     0.17000
O716        O  0.24442924  0.18221591  0.44984086    -0.59900
H717        H  0.31503858  0.08331774  0.46455977     0.17000
O718        O  0.33478359  0.06872698  0.43472398    -0.60000
H719        H  0.32488254  0.04060142  0.43132277     0.44000
H720        H  0.25081751  0.21386302  0.44848520     0.44000
C721        C  0.75133732  0.85961641  0.51631589    -0.05100
C722        C  0.77244469  0.82696810  0.51346687    -0.32500
C723        C  0.77202372  0.78589804  0.52221417     0.36700
C724        C  0.74985434  0.77660301  0.53369966    -0.05500
C725        C  0.72891038  0.80950571  0.53658069    -0.32400
C726        C  0.72963712  0.85079975  0.52808425     0.36600
H727        H  0.78944466  0.83359303  0.50458422     0.17000
O728        O  0.79347025  0.75526860  0.51955609    -0.59900
H729        H  0.71154788  0.80280904  0.54520598     0.17000
O730        O  0.70827090  0.88157022  0.53074968    -0.60000
H731        H  0.71322519  0.89668524  0.54154843     0.44000
H732        H  0.80791776  0.76184530  0.52839857     0.44000
C733        C  0.75365121  0.02811781  0.51685633    -0.05100
C734        C  0.73309022  0.06162064  0.51383134    -0.32500
C735        C  0.73406125  0.10286568  0.52242656     0.36700
C736        C  0.75603694  0.11150396  0.53422806    -0.05500
C737        C  0.77632065  0.07765099  0.53743446    -0.32400
C738        C  0.77533258  0.03642029  0.52883308     0.36600
H739        H  0.71604452  0.05565754  0.50483144     0.17000
O740        O  0.71337805  0.13443820  0.51917953    -0.59900
H741        H  0.79361901  0.08369258  0.54624970     0.17000
O742        O  0.79619975  0.00501623  0.53187150    -0.60000
H743        H  0.81077986  0.01027537  0.52305302     0.44000
H744        H  0.69904381  0.13043371  0.52822638     0.44000
C745        C  0.54281745  0.03747653  0.34630573    -0.05100
C746        C  0.52301797  0.01617865  0.35685829    -0.32500
C747        C  0.49435259  0.02893079  0.35676909     0.36700
C748        C  0.48497776  0.06435818  0.34625645    -0.05500
C749        C  0.50453381  0.08473190  0.33528409    -0.32400
C750        C  0.53324679  0.07170678  0.33527806     0.36600
H751        H  0.52970167  0.98914040  0.36516242     0.17000
O752        O  0.47567474  0.00605322  0.36690446    -0.59900
H753        H  0.49779135  0.11195360  0.32708195     0.17000
O754        O  0.55181564  0.09385116  0.32485449    -0.60000
H755        H  0.56019126  0.11818473  0.33188828     0.44000
H756        H  0.46805255  0.98136138  0.35974334     0.44000
C757        C  0.72335869  0.95630529  0.42801564    -0.05100
C758        C  0.70749658  0.92875241  0.43892650    -0.32500
C759        C  0.71548272  0.92319145  0.45586055     0.36700
C760        C  0.73959000  0.94575243  0.46230273    -0.05500
C761        C  0.75580501  0.97267627  0.45136793    -0.32400
C762        C  0.74802728  0.97777912  0.43433515     0.36600
H763        H  0.68849564  0.91183959  0.43439191     0.17000
O764        O  0.69839134  0.89825976  0.46631072    -0.59900
H765        H  0.77428188  0.99057285  0.45614677     0.17000
O766        O  0.76351922  0.00638693  0.42435569    -0.60000
H767        H  0.78096971  0.98933784  0.42133477     0.44000
H768        H  0.70293808  0.86634139  0.46370997     0.44000
C769        C  0.79096072  0.03034837  0.26198604    -0.05100
C770        C  0.76819088  0.99961856  0.26095375    -0.32500
C771        C  0.75111043  0.99049874  0.27502961     0.36700
C772        C  0.75695447  0.01148548  0.29061434    -0.05500
C773        C  0.78026530  0.04083315  0.29188072    -0.32400
C774        C  0.79689645  0.05094137  0.27772222     0.36600
H775        H  0.76344645  0.98255886  0.24917841     0.17000
O776        O  0.72932100  0.95990211  0.27357359    -0.59900
H777        H  0.78485295  0.05762521  0.30374477     0.17000
O778        O  0.81811091  0.08238968  0.27936285    -0.60000
H779        H  0.80915900  0.11147777  0.27617643     0.44000
H780        H  0.71392212  0.97593590  0.26740869     0.44000
C781        C  0.79592976  0.00765654  0.08899746    -0.05100
C782        C  0.82108744  0.98752287  0.09492466    -0.32500
C783        C  0.82993343  0.99356678  0.11166382     0.36700
C784        C  0.81308750  0.01899167  0.12288459    -0.05500
C785        C  0.78708893  0.03698044  0.11722083    -0.32400
C786        C  0.77860162  0.03187573  0.10034026     0.36600
H787        H  0.83450728  0.96851491  0.08636706     0.17000
O788        O  0.85489642  0.97402186  0.11702582    -0.59900
H789        H  0.77395927  0.05669682  0.12570517     0.17000
O790        O  0.75371494  0.05154747  0.09495995    -0.60000
H791        H  0.73933741  0.02706269  0.09514012     0.44000
H792        H  0.87032334  0.99220914  0.11188882     0.44000
C793        C  0.25413015  0.22480926  0.25904310    -0.05100
C794        C  0.28102566  0.20508507  0.25676990    -0.32500
C795        C  0.29785436  0.19231219  0.27061063     0.36700
C796        C  0.28790812  0.19915446  0.28726883    -0.05500
C797        C  0.26144701  0.22071899  0.28947095    -0.32400
C798        C  0.24474567  0.23367184  0.27561411     0.36600
H799        H  0.28871759  0.19774731  0.24418355     0.17000
O800        O  0.32316000  0.17077871  0.26753956    -0.59900
H801        H  0.25347136  0.22776450  0.30200537     0.17000
O802        O  0.21924935  0.25491955  0.27849789    -0.60000
H803        H  0.22360016  0.28760006  0.27799940     0.44000
H804        H  0.33661738  0.19495840  0.26422795     0.44000
C805        C  0.04373782  0.18386908  0.19993665    -0.05100
C806        C  0.02422693  0.19890928  0.18767220    -0.32500
C807        C  0.99639893  0.18217697  0.18711061     0.36700
C808        C  0.98746343  0.15024906  0.19910592    -0.05500
C809        C  0.00662630  0.13597705  0.21163816    -0.32400
C810        C  0.03463869  0.15210310  0.21203066     0.36600
H811        H  0.03045885  0.22393576  0.17845397     0.17000
O812        O  0.97773234  0.19877323  0.17526723    -0.59900
H813        H  0.00012025  0.11115214  0.22087571     0.17000
O814        O  0.05300988  0.13546763  0.22399976    -0.60000
H815        H  0.06267511  0.10960437  0.21850514     0.44000
H816        H  0.98371058  0.18515242  0.16438826     0.44000
C817        C  0.24237307  0.23772012  0.08660202    -0.05100
C818        C  0.21934867  0.26622266  0.09034554    -0.32500
C819        C  0.20973364  0.27133991  0.10692220     0.36700
C820        C  0.22351124  0.24830236  0.12019486    -0.05500
C821        C  0.24694224  0.22047027  0.11652393    -0.32400
C822        C  0.25629017  0.21485410  0.09985844     0.36600
H823        H  0.20849335  0.28425585  0.08030774     0.17000
O824        O  0.18752248  0.30024528  0.11008928    -0.59900
H825        H  0.25766804  0.20224917  0.12655214     0.17000
O826        O  0.27907236  0.18715028  0.09669319    -0.60000
H827        H  0.29587309  0.20739665  0.09635937     0.44000
H828        H  0.17027771  0.28479838  0.10568671     0.44000
C829        C  0.77698882  0.08476732  0.03400278    -0.05100
C830        C  0.75735390  0.11684962  0.03985025    -0.32500
C831        C  0.75193761  0.15619447  0.03069670     0.36700
C832        C  0.76638894  0.16433751  0.01540861    -0.05500
C833        C  0.78612185  0.13236365  0.00955664    -0.32400
C834        C  0.79167972  0.09304762  0.01879969     0.36600
H835        H  0.74571092  0.11096511  0.05143421     0.17000
O836        O  0.73212279  0.18617076  0.03670570    -0.59900
H837        H  0.79769377  0.13836602  0.99795746     0.17000
O838        O  0.81187032  0.06339071  0.01301685    -0.60000
H839        H  0.82968936  0.07172161  0.01903064     0.44000
H840        H  0.71399914  0.17784103  0.03102807     0.44000
C841        C  0.74602488  0.23891311  0.78822864    -0.05100
C842        C  0.73426125  0.21954680  0.77359944    -0.32500
C843        C  0.75025825  0.21544428  0.75880036     0.36700
C844        C  0.77846832  0.23195919  0.75824544    -0.05500
C845        C  0.79005561  0.25177428  0.77288806    -0.32400
C846        C  0.77424111  0.25493547  0.78779627     0.36600
H847        H  0.71269083  0.20654748  0.77371496     0.17000
O848        O  0.73811713  0.19438464  0.74514271    -0.59900
H849        H  0.81141895  0.26549444  0.77283359     0.17000
O850        O  0.78611619  0.27586212  0.80158213    -0.60000
H851        H  0.79986831  0.25377662  0.80631769     0.44000
H852        H  0.74444476  0.16254308  0.74590088     0.44000
C853        C  0.71843131  0.24561460  0.92808614    -0.05100
C854        C  0.74354534  0.22201341  0.93222070    -0.32500
C855        C  0.75386366  0.22113135  0.94889530     0.36700
C856        C  0.73904765  0.24409852  0.96174778    -0.05500
C857        C  0.71413342  0.26781181  0.95759362    -0.32400
C858        C  0.70393687  0.26904365  0.94102203     0.36600
H859        H  0.75512588  0.20389933  0.92253958     0.17000
O860        O  0.77858723  0.19824912  0.95242882    -0.59900
H861        H  0.70248018  0.28577648  0.96730168     0.17000
O862        O  0.68007590  0.29423663  0.93766363    -0.60000
H863        H  0.68731169  0.32418163  0.93414807     0.44000
H864        H  0.79374346  0.22152848  0.95251119     0.44000
C865        C  0.27111073  0.38918062  0.01199875    -0.05100
C866        C  0.29151350  0.35464102  0.01088942    -0.32500
C867        C  0.28904806  0.31564220  0.02070213     0.36700
C868        C  0.26576977  0.31051034  0.03174110    -0.05500
C869        C  0.24543403  0.34504948  0.03288832    -0.32400
C870        C  0.24782493  0.38393000  0.02306759     0.36600
H871        H  0.30969315  0.35825081  0.00260227     0.17000
O872        O  0.30969897  0.28301849  0.01956759    -0.59900
H873        H  0.22725216  0.34144264  0.04117974     0.17000
O874        O  0.22697476  0.41624294  0.02418595    -0.60000
H875        H  0.21348954  0.40941770  0.01485234     0.44000
H876        H  0.32273365  0.28874012  0.02922625     0.44000
C877        C  0.27665351  0.43407373  0.78301862    -0.05100
C878        C  0.28793905  0.45021599  0.76778429    -0.32500
C879        C  0.27183387  0.44948292  0.75281668     0.36700
C880        C  0.24383876  0.43192025  0.75283199    -0.05500
C881        C  0.23266135  0.41598202  0.76818880    -0.32400
C882        C  0.24862228  0.41730985  0.78314652     0.36600
H883        H  0.30934538  0.46386160  0.76747671     0.17000
O884        O  0.28343982  0.46744421  0.73846187    -0.59900
H885        H  0.21156342  0.40142302  0.76870909     0.17000
O886        O  0.23714808  0.39958612  0.79759279    -0.60000
H887        H  0.22335502  0.42252366  0.80163164     0.44000
H888        H  0.29759055  0.44489014  0.73454960     0.44000
C889        C  0.48169459  0.34842890  0.84363600    -0.05100
C890        C  0.49049674  0.32282329  0.85759285    -0.32500
C891        C  0.51801291  0.30505239  0.85856288     0.36700
C892        C  0.53778092  0.31334535  0.84553877    -0.05500
C893        C  0.52869059  0.33770256  0.83125671    -0.32400
C894        C  0.50092724  0.35519756  0.83023944     0.36600
H895        H  0.47588688  0.31626544  0.86786135     0.17000
O896        O  0.52512418  0.27936222  0.87232744    -0.59900
H897        H  0.54335648  0.34450081  0.82104755     0.17000
O898        O  0.49324420  0.38012622  0.81637704    -0.60000
H899        H  0.49845939  0.41162688  0.81923177     0.44000
H900        H  0.52184051  0.24773716  0.86874784     0.44000
C901        C  0.30869791  0.46190604  0.92248614    -0.05100
C902        C  0.32422318  0.43892213  0.93502926    -0.32500
C903        C  0.31609635  0.44059147  0.95196078     0.36700
C904        C  0.29182161  0.46528524  0.95678819    -0.05500
C905        C  0.27618714  0.48844091  0.94434003    -0.32400
C906        C  0.28431334  0.48665120  0.92727962     0.36600
H907        H  0.34283459  0.41920910  0.93176340     0.17000
O908        O  0.33243535  0.41855600  0.96375400    -0.59900
H909        H  0.25755156  0.50786838  0.94784890     0.17000
O910        O  0.26904677  0.51081544  0.91558270    -0.60000
H911        H  0.25141097  0.49314285  0.91359316     0.44000
H912        H  0.34631495  0.44131573  0.96784853     0.44000
C913        C  0.77784377  0.83306643  0.01890929    -0.05100
C914        C  0.79858118  0.83956260  0.03147438    -0.32500
C915        C  0.80059448  0.88065848  0.04014538     0.36700
C916        C  0.78132624  0.91593995  0.03644687    -0.05500
C917        C  0.76024766  0.90889027  0.02404108    -0.32400
C918        C  0.75864621  0.86811581  0.01517351     0.36600
H919        H  0.81386284  0.81311166  0.03420577     0.17000
O920        O  0.82256667  0.88696750  0.05139452    -0.59900
H921        H  0.74490900  0.93513156  0.02117124     0.17000
O922        O  0.73778454  0.86232702  0.00317794    -0.60000
H923        H  0.74441629  0.87936031  0.99316304     0.44000
H924        H  0.81805364  0.86755070  0.06121702     0.44000
C925        C  0.79085077  0.72805992  0.79006795    -0.05100
C926        C  0.76101987  0.72822378  0.79145250    -0.32500
C927        C  0.74344676  0.72660828  0.77713391     0.36700
C928        C  0.75551473  0.72542945  0.76080075    -0.05500
C929        C  0.78535909  0.72384302  0.75942720    -0.32400
C930        C  0.80290915  0.72450914  0.77378327     0.36600
H931        H  0.75094025  0.73011003  0.80369802     0.17000
O932        O  0.71452888  0.72433102  0.77941493    -0.59900
H933        H  0.79537637  0.72236189  0.74715053     0.17000
O934        O  0.83179257  0.72116433  0.77159694    -0.60000
H935        H  0.83618371  0.68862782  0.77286509     0.36000
H936        H  0.70877253  0.75471645  0.78340800     0.44000
C937        C  0.81125480  0.74799350  0.93048494    -0.05100
C938        C  0.82539404  0.77496968  0.94250353    -0.32500
C939        C  0.81645598  0.77674475  0.95927284     0.36700
C940        C  0.79268722  0.75154663  0.96446927    -0.05500
C941        C  0.77820000  0.72483989  0.95254060    -0.32400
C942        C  0.78720909  0.72302844  0.93565279     0.36600
H943        H  0.84372170  0.79496240  0.93904734     0.17000
O944        O  0.83228019  0.80095532  0.97073457    -0.59900
H945        H  0.75998249  0.70494108  0.95637147     0.17000
O946        O  0.77322842  0.69501686  0.92461717    -0.60000
H947        H  0.75540793  0.71115532  0.92158564     0.44000
H948        H  0.82820666  0.83308671  0.96822487     0.44000
C949        C  0.25918137  0.06043288  0.01685833    -0.05100
C950        C  0.28023769  0.09256078  0.01346430    -0.32500
C951        C  0.28142247  0.13290671  0.02261547     0.36700
C952        C  0.26068508  0.14243753  0.03504373    -0.05500
C953        C  0.23992231  0.10967983  0.03861469    -0.32400
C954        C  0.23917939  0.06889628  0.02969473     0.36600
H955        H  0.29602852  0.08605522  0.00380575     0.17000
O956        O  0.30305586  0.16267712  0.01933097    -0.59900
H957        H  0.22369369  0.11616890  0.04800692     0.17000
O958        O  0.21844373  0.03788077  0.03336729    -0.60000
H959        H  0.20290377  0.04374171  0.02512991     0.44000
H960        H  0.31742370  0.15738765  0.02833452     0.44000
C961        C  0.25198499  0.92595674  0.78880200    -0.05100
C962        C  0.27831781  0.90399706  0.79065910    -0.32500
C963        C  0.29531342  0.89418186  0.77658736     0.36700
C964        C  0.28643194  0.90739515  0.76023167    -0.05500
C965        C  0.26009251  0.92966187  0.75849437    -0.32400
C966        C  0.24303161  0.93899923  0.77253564     0.36600
H967        H  0.28544765  0.89319534  0.80304046     0.17000
O968        O  0.32023394  0.87091164  0.77904923    -0.59900
H969        H  0.25275343  0.94087921  0.74622908     0.17000
O970        O  0.21788509  0.96180362  0.77020661    -0.60000
H971        H  0.22295609  0.99417729  0.77107369     0.44000
H972        H  0.31478919  0.83862736  0.77870913     0.44000
C973        C  0.98992184  0.83956439  0.85210955    -0.05100
C974        C  0.00753467  0.83499094  0.86637735    -0.32500
C975        C  0.03514241  0.85262408  0.86660824     0.36700
C976        C  0.04590771  0.87498552  0.85226019    -0.05500
C977        C  0.02840747  0.87927831  0.83793382    -0.32400
C978        C  0.00058285  0.86228078  0.83782736     0.36600
H979        H  0.00012084  0.81707302  0.87742434     0.17000
O980        O  0.05181814  0.84564442  0.88063111    -0.59900
H981        H  0.03607184  0.89679513  0.82685263     0.17000
O982        O  0.98391839  0.86906375  0.82380446    -0.60000
H983        H  0.97400043  0.89808511  0.82585399     0.44000
H984        H  0.04407545  0.86613880  0.88941252     0.44000
C985        C  0.22674211  0.97121169  0.92783283    -0.05100
C986        C  0.20870321  0.99170457  0.93975014    -0.32500
C987        C  0.21700090  0.99619563  0.95665820     0.36700
C988        C  0.24354848  0.97939167  0.96203282    -0.05500
C989        C  0.26180447  0.95940052  0.95017593    -0.32400
C990        C  0.25376351  0.95574692  0.93313841     0.36600
H991        H  0.18789091  0.00405772  0.93600284     0.17000
O992        O  0.19828645  0.01449416  0.96804586    -0.59900
H993        H  0.28219137  0.94592041  0.95421490     0.17000
O994        O  0.27169251  0.93438829  0.92207364    -0.60000
H995        H  0.28644240  0.95705362  0.91923834     0.44000
H996        H  0.20054561  0.04759713  0.96691973     0.44000
C997        C  0.75754502  0.33239227  0.01449680    -0.05100
C998        C  0.77888309  0.34061189  0.02665631    -0.32500
C999        C  0.77927360  0.38076200  0.03592778     0.36700
C1000       C  0.75865580  0.41405874  0.03281564    -0.05500
C1001       C  0.73742479  0.40637946  0.02066800    -0.32400
C1002       C  0.73654275  0.36577053  0.01162563     0.36600
H1003       H  0.79541762  0.31585348  0.02897888     0.17000
O1004       O  0.80033504  0.38771982  0.04770039    -0.59900
H1005       H  0.72112393  0.43162416  0.01844547     0.17000
O1006       O  0.71415918  0.35799887  0.00079275    -0.60000
H1007       H  0.71710642  0.37876229  0.99114517     0.44000
H1008       H  0.79280181  0.37489175  0.05834892     0.44000
C1009       C  0.76781981  0.58135056  0.03388054    -0.05100
C1010       C  0.75115128  0.59062274  0.01956160    -0.32500
C1011       C  0.75357414  0.63183628  0.01115066     0.36700
C1012       C  0.77294480  0.66458668  0.01704249    -0.05500
C1013       C  0.78984530  0.65514583  0.03128786    -0.32400
C1014       C  0.78735791  0.61387549  0.03972396     0.36600
H1015       H  0.73570013  0.56616769  0.01510450     0.17000
O1016       O  0.73588180  0.64077814  0.99772378    -0.59900
H1017       H  0.80519267  0.67969708  0.03579092     0.17000
O1018       O  0.80477411  0.60492532  0.05327376    -0.60000
H1019       H  0.79659132  0.62222808  0.06282543     0.44000
H1020       H  0.74334076  0.62239381  0.98824132     0.44000
C1021       C  0.72410690  0.48722193  0.25638218    -0.05100
C1022       C  0.75230142  0.47118607  0.25553277    -0.32500
C1023       C  0.76992685  0.47077813  0.26980391     0.36700
C1024       C  0.75938751  0.48571396  0.28543684    -0.05500
C1025       C  0.73122086  0.50118220  0.28647728    -0.32400
C1026       C  0.71366299  0.50243620  0.27212952     0.36600
H1027       H  0.76087537  0.45835503  0.24380653     0.17000
O1028       O  0.79702055  0.45369811  0.26849984    -0.59900
H1029       H  0.72297080  0.51347090  0.29839414     0.17000
O1030       O  0.68691562  0.52063231  0.27357996    -0.60000
H1031       H  0.67547472  0.49749655  0.27952749     0.44000
H1032       H  0.80820051  0.47741912  0.26270828     0.44000
C1033       C  0.73788971  0.49884230  0.08560320    -0.05100
C1034       C  0.71269793  0.52285858  0.08864165    -0.32500
C1035       C  0.69947328  0.52120408  0.10442966     0.36700
C1036       C  0.71162791  0.49544948  0.11760064    -0.05500
C1037       C  0.73763419  0.47311550  0.11473113    -0.32400
C1038       C  0.75063085  0.47438830  0.09882468     0.36600
H1039       H  0.70285017  0.54222299  0.07858897     0.17000
O1040       O  0.67528624  0.54627533  0.10700243    -0.59900
H1041       H  0.74759251  0.45364196  0.12469877     0.17000
O1042       O  0.77608126  0.45254969  0.09639481    -0.60000
H1043       H  0.77102636  0.42042243  0.09466321     0.44000
H1044       H  0.66008081  0.53088356  0.10043982     0.44000
C1045       C  0.26154079  0.63888907  0.02589110    -0.05100
C1046       C  0.24236432  0.60352966  0.02866352    -0.32500
C1047       C  0.24494423  0.56296842  0.01979371     0.36700
C1048       C  0.26741055  0.55685940  0.00816938    -0.05500
C1049       C  0.28615745  0.59278147  0.00510791    -0.32400
C1050       C  0.28337676  0.63350849  0.01387441     0.36600
H1051       H  0.22540918  0.60735094  0.03781497     0.17000
O1052       O  0.22548992  0.52939424  0.02269496    -0.59900
H1053       H  0.30366727  0.58873974  0.99635075     0.17000
O1054       O  0.30278997  0.66722133  0.01107987    -0.60000
H1055       H  0.31740908  0.66362828  0.02006121     0.44000
H1056       H  0.21081935  0.53298943  0.01374664     0.44000
C1057       C  0.26047953  0.89215500  0.01478190    -0.05100
C1058       C  0.27845172  0.85797987  0.00871676    -0.32500
C1059       C  0.27919212  0.81568481  0.01649554     0.36700
C1060       C  0.26152925  0.80680546  0.03050070    -0.05500
C1061       C  0.24376413  0.84114796  0.03664391    -0.32400
C1062       C  0.24298294  0.88338837  0.02883763     0.36600
H1063       H  0.29209077  0.86422588  0.99795558     0.17000
O1064       O  0.29740042  0.78341453  0.01035885    -0.59900
H1065       H  0.22987955  0.83481654  0.04728423     0.17000
O1066       O  0.22441890  0.91543418  0.03475523    -0.60000
H1067       H  0.20723891  0.91279465  0.02748347     0.44000
H1068       H  0.31436219  0.78456227  0.01785858     0.44000
C1069       C  0.26112137  0.66097141  0.25481942    -0.05100
C1070       C  0.27458864  0.66212529  0.27070217    -0.32500
C1071       C  0.25875928  0.66499171  0.28567731     0.36700
C1072       C  0.22864168  0.66717159  0.28506645    -0.05500
C1073       C  0.21531485  0.66642309  0.26911823    -0.32400
C1074       C  0.23111281  0.66330928  0.25418760     0.36600
H1075       H  0.29760997  0.66063409  0.27159499     0.17000
O1076       O  0.27317261  0.66494736  0.30075664    -0.59900
H1077       H  0.19235732  0.66813971  0.26803234     0.17000
O1078       O  0.21673781  0.66009224  0.23912675    -0.60000
H1079       H  0.20966475  0.69097658  0.23675162     0.44000
H1080       H  0.27600725  0.63268124  0.30357053     0.44000
C1081       C  0.45746199  0.54180824  0.19247275    -0.05100
C1082       C  0.46855399  0.51775112  0.17870466    -0.32500
C1083       C  0.49713394  0.50406222  0.17844529     0.36700
C1084       C  0.51537091  0.51481648  0.19207382    -0.05500
C1085       C  0.50391044  0.53703403  0.20618906    -0.32400
C1086       C  0.47524238  0.55023507  0.20652769     0.36600
H1087       H  0.45503992  0.50963578  0.16800136     0.17000
O1088       O  0.50672999  0.47897078  0.16504961    -0.59900
H1089       H  0.51739436  0.54577485  0.21682475     0.17000
O1090       O  0.46547409  0.57407990  0.22018027    -0.60000
H1091       H  0.46247847  0.55129734  0.22916241     0.44000
H1092       H  0.50717424  0.49999094  0.15531790     0.44000
C1093       C  0.28691131  0.69137833  0.11577022    -0.05100
C1094       C  0.30715429  0.70748510  0.10423177    -0.32500
C1095       C  0.29950671  0.71753002  0.08759254     0.36700
C1096       C  0.27133914  0.71080621  0.08209260    -0.05500
C1097       C  0.25079425  0.69573438  0.09360694    -0.32400
C1098       C  0.25830380  0.68670515  0.11046565     0.36600
H1099       H  0.32918368  0.71174332  0.10805498     0.17000
O1100       O  0.32010406  0.73127581  0.07648639    -0.59900
H1101       H  0.22907140  0.69008553  0.08942046     0.17000
O1102       O  0.23800721  0.67038854  0.12126369    -0.60000
H1103       H  0.22713947  0.69725522  0.12502965     0.44000
H1104       H  0.32077655  0.76455942  0.07762872     0.44000
loop_ 
_geom_bond_atom_site_label_1 
_geom_bond_atom_site_label_2 
_geom_bond_distance 
_geom_bond_site_symmetry_2 
_ccdc_geom_bond_type 
N1            N2   1.321       .  A
N1            C5   1.344       .  A
N1           Cu9   2.073       .  S
N2            C3   1.345       .  A
N2           Cu8   2.073       .  S
C3            C4   1.387       .  A
C3            H6   1.082       .  S
C4            C5   1.386       .  A
C4         C1081   1.484       .  S
C5            H7   1.081       .  S
Cu8          N11   2.073       .  S
Cu9          N19   2.074       .  S
Cu10         N12   2.082       .  S
Cu10         N18   2.082       .  S
N11          N12   1.322       .  A
N11          C15   1.342       .  A
N12          C13   1.349       .  A
C13          C14   1.388       .  A
C13          H16   1.082       .  S
C14          C15   1.384       .  A
C14        C1093   1.483       .  S
C15          H17   1.082       .  S
N18          N19   1.322       .  A
N18          C22   1.344       .  A
N19          C20   1.346       .  A
C20          C21   1.388       .  A
C20          H23   1.082       .  S
C21          C22   1.389       .  A
C21        C1069   1.491       .  S
C22          H24   1.080       .  S
C25          C26   1.400       .  A
C25          C30   1.403       .  A
C25        C1096   1.475       .  S
C26          C27   1.402       .  A
C26          H31   1.084       .  S
C27          C28   1.401       .  A
C27        C1045   1.477       .  S
C28          C29   1.404       .  A
C28          H32   1.084       .  S
C29          C30   1.406       .  A
C29        C1060   1.482       .  S
C30          H33   1.084       .  S
N34          N35   1.320       .  A
N34          C38   1.345       .  A
N34         Cu42   2.070       .  S
N35          C36   1.343       .  A
N35         Cu41   2.069       .  S
C36          C37   1.387       .  A
C36          H39   1.080       .  S
C37          C38   1.388       .  A
C37        C1084   1.485       .  S
C38          H40   1.082       .  S
Cu41         N44   2.069       .  S
Cu42         N52   2.070       .  S
Cu43         N45   2.070       .  S
Cu43         N51   2.071       .  S
N44          N45   1.320       .  A
N44          C48   1.342       .  A
N45          C46   1.346       .  A
C46          C47   1.387       .  A
C46          H49   1.082       .  S
C47          C48   1.386       .  A
C47        C1036   1.484       .  S
C48          H50   1.081       .  S
N51          N52   1.321       .  A
N51          C55   1.342       .  A
N52          C53   1.344       .  A
C53          C54   1.389       .  A
C53          H56   1.079       .  S
C54          C55   1.388       .  A
C54        C1021   1.489       .  S
C55          H57   1.081       .  S
C58          C59   1.402       .  A
C58          C63   1.403       .  A
C58        C1033   1.476       .  S
C59          C60   1.403       .  A
C59          H64   1.084       .  S
C60          C61   1.403       .  A
C60        C1009   1.477       .  S
C61          C62   1.400       .  A
C61          H65   1.084       .  S
C62          C63   1.401       .  A
C62        C1000   1.473       .  S
C63          H66   1.084       .  S
N67          N68   1.319       .  A
N67          C71   1.347       .  A
N67         Cu75   2.077       .  S
N68          C69   1.339       .  A
N68         Cu74   2.051       .  S
C69          C70   1.383       .  A
C69          H72   1.080       .  S
C70          C71   1.390       .  A
C70         C976   1.482       .  S
C71          H73   1.082       .  S
Cu74         N77   2.052       .  S
Cu75         N85   2.079       .  S
Cu76         N78   2.089       .  S
Cu76         N84   2.090       .  S
N77          N78   1.320       .  A
N77          C81   1.340       .  A
N78          C79   1.349       .  A
C79          C80   1.392       .  A
C79          H82   1.081       .  S
C80          C81   1.382       .  A
C80         C985   1.485       .  S
C81          H83   1.082       .  S
N84          N85   1.325       .  A
N84          C88   1.347       .  A
N85          C86   1.345       .  A
C86          C87   1.384       .  A
C86          H89   1.082       .  S
C87          C88   1.386       .  A
C87         C961   1.483       .  S
C88          H90   1.082       .  S
C91          C92   1.402       .  A
C91          C96   1.405   1_565  A
C91         C988   1.479       .  S
C92          C93   1.403   1_556  A
C92          H97   1.084       .  S
C93          C94   1.403       .  A
C93        C1057   1.481       .  S
C94          C95   1.402   1_565  A
C94          H98   1.084       .  S
C95          C96   1.405   1_554  A
C95         C949   1.478       .  S
C96          H99   1.084       .  S
N100        N101   1.318       .  A
N100        C104   1.345       .  A
N100       Cu108   2.068       .  S
N101        C102   1.341       .  A
N101       Cu107   2.053       .  S
C102        C103   1.385       .  A
C102        H105   1.082       .  S
C103        C104   1.389       .  A
C103        C973   1.483       .  S
C104        H106   1.081       .  S
Cu107       N110   2.053       .  S
Cu108       N118   2.070       .  S
Cu109       N111   2.086       .  S
Cu109       N117   2.088       .  S
N110        N111   1.319       .  A
N110        C114   1.337       .  A
N111        C112   1.350       .  A
C112        C113   1.394       .  A
C112        H115   1.080       .  S
C113        C114   1.384       .  A
C113        C937   1.489       .  S
C114        H116   1.081       .  S
N117        N118   1.323       .  A
N117        C121   1.345       .  A
N118        C119   1.343       .  A
C119        C120   1.387       .  A
C119        H122   1.080       .  S
C120        C121   1.391       .  A
C120        C925   1.492       .  S
C121        H123   1.081       .  S
C124        C125   1.402       .  A
C124        C129   1.404       .  A
C124        C940   1.483       .  S
C125        C126   1.403   1_556  A
C125        H130   1.084       .  S
C126        C127   1.405       .  A
C126       C1012   1.480       .  S
C127        C128   1.403       .  A
C127        H131   1.084       .  S
C128        C129   1.402   1_554  A
C128        C913   1.478       .  S
C129        H132   1.083       .  S
N133        N134   1.320       .  A
N133        C137   1.348       .  A
N133       Cu141   2.073       .  S
N134        C135   1.341       .  A
N134       Cu140   2.066       .  S
C135        C136   1.384       .  A
C135        H138   1.082       .  S
C136        C137   1.388       .  A
C136        C889   1.482       .  S
C137        H139   1.082       .  S
Cu140       N143   2.065       .  S
Cu141       N151   2.075       .  S
Cu142       N144   2.086       .  S
Cu142       N150   2.087       .  S
N143        N144   1.321       .  A
N143        C147   1.340       .  A
N144        C145   1.350       .  A
C145        C146   1.391       .  A
C145        H148   1.081       .  S
C146        C147   1.385       .  A
C146        C901   1.488       .  S
C147        H149   1.082       .  S
N150        N151   1.324       .  A
N150        C154   1.346       .  A
N151        C152   1.344       .  A
C152        C153   1.383       .  A
C152        H155   1.082       .  S
C153        C154   1.387       .  A
C153        C877   1.482       .  S
C154        H156   1.081       .  S
C157        C158   1.405       .  A
C157        C162   1.407       .  A
C157        C904   1.485       .  S
C158        C159   1.406       .  A
C158        H163   1.083       .  S
C159        C160   1.402   1_556  A
C159       C1048   1.484   1_556  S
C160        C161   1.400       .  A
C160        H164   1.083       .  S
C161        C162   1.404   1_554  A
C161        C865   1.483       .  S
C162        H165   1.084       .  S
N166        N167   1.319       .  A
N166        C170   1.346       .  A
N166       Cu174   2.067       .  S
N167        C168   1.341       .  A
N167       Cu173   2.065       .  S
C168        C169   1.388       .  A
C168        H171   1.081       .  S
C169        C170   1.389       .  A
C169        C892   1.487       .  S
C170        H172   1.082       .  S
Cu173       N176   2.065       .  S
Cu174       N184   2.068       .  S
Cu175       N177   2.082       .  S
Cu175       N183   2.083       .  S
N176        N177   1.320       .  A
N176        C180   1.340       .  A
N177        C178   1.349       .  A
C178        C179   1.391       .  A
C178        H181   1.082       .  S
C179        C180   1.385       .  A
C179        C853   1.488       .  S
C180        H182   1.081       .  S
N183        N184   1.324       .  A
N183        C187   1.345       .  A
N184        C185   1.342       .  A
C185        C186   1.382       .  A
C185        H188   1.082       .  S
C186        C187   1.386       .  A
C186        C841   1.480       .  S
C187        H189   1.081       .  S
C190        C191   1.405       .  A
C190        C195   1.404       .  A
C190        C856   1.484       .  S
C191        C192   1.406   1_556  A
C191        H196   1.084       .  S
C192        C193   1.404       .  A
C192        C832   1.484       .  S
C193        C194   1.403       .  A
C193        H197   1.083       .  S
C194        C195   1.403   1_554  A
C194        C997   1.489       .  S
C195        H198   1.083       .  S
N199        N200   1.319       .  A
N199        C203   1.344       .  A
N199       Cu207   2.067       .  S
N200        C201   1.341       .  A
N200       Cu206   2.056       .  S
C201        C202   1.385       .  A
C201        H204   1.082       .  S
C202        C203   1.388       .  A
C202        C805   1.482       .  S
C203        H205   1.081       .  S
Cu206       N209   2.056       .  S
Cu207       N217   2.068       .  S
Cu208       N210   2.083       .  S
Cu208       N216   2.083       .  S
N209        N210   1.321       .  A
N209        C213   1.341       .  A
N210        C211   1.347       .  A
C211        C212   1.387       .  A
C211        H214   1.082       .  S
C212        C213   1.381       .  A
C212        C820   1.478       .  S
C213        H215   1.081       .  S
N216        N217   1.322       .  A
N216        C220   1.346       .  A
N217        C218   1.343       .  A
C218        C219   1.385       .  A
C218        H221   1.081       .  S
C219        C220   1.389       .  A
C219        C793   1.485       .  S
C220        H222   1.082       .  S
C223        C224   1.402       .  A
C223        C228   1.407       .  A
C223        C817   1.481       .  S
C224        C225   1.400       .  A
C224        H229   1.084       .  S
C225        C226   1.400       .  A
C225        C868   1.480       .  S
C226        C227   1.405       .  A
C226        H230   1.083       .  S
C227        C228   1.409       .  A
C227        C952   1.489       .  S
C228        H231   1.083       .  S
N232        N233   1.321       .  A
N232        C236   1.345       .  A
N232       Cu240   2.075       .  S
N233        C234   1.342       .  A
N233       Cu239   2.057       .  S
C234        C235   1.382       .  A
C234        H237   1.082       .  S
C235        C236   1.385       .  A
C235        C808   1.475       .  S
C236        H238   1.082       .  S
Cu239       N242   2.057       .  S
Cu240       N250   2.077       .  S
Cu241       N243   2.082       .  S
Cu241       N249   2.084       .  S
N242        N243   1.321       .  A
N242        C246   1.341       .  A
N243        C244   1.348       .  A
C244        C245   1.387       .  A
C244        H247   1.082       .  S
C245        C246   1.380       .  A
C245        C784   1.476       .  S
C246        H248   1.082       .  S
N249        N250   1.323       .  A
N249        C253   1.345       .  A
N250        C251   1.345       .  A
C251        C252   1.388       .  A
C251        H254   1.081       .  S
C252        C253   1.388       .  A
C252        C769   1.490       .  S
C253        H255   1.082       .  S
C256        C257   1.402       .  A
C256        C261   1.402   1_545  A
C256        C781   1.479       .  S
C257        C258   1.403       .  A
C257        H262   1.084       .  S
C258        C259   1.404       .  A
C258        C829   1.484       .  S
C259        C260   1.407   1_545  A
C259        H263   1.083   1_545  S
C260        C261   1.405       .  A
C260        C916   1.488       .  S
C261        H264   1.083       .  S
N265        N266   1.321       .  A
N265        C269   1.344       .  A
N265       Cu273   2.069       .  S
N266        C267   1.343       .  A
N266       Cu272   2.069   1_545  S
C267        C268   1.386       .  A
C267        H270   1.082       .  S
C268        C269   1.386       .  A
C268        C745   1.482       .  S
C269        H271   1.081       .  S
Cu272       N275   2.070       .  S
Cu273       N283   2.070       .  S
Cu274       N276   2.089       .  S
Cu274       N282   2.089   1_565  S
N275        N276   1.322       .  A
N275        C279   1.344       .  A
N276        C277   1.348       .  A
C277        C278   1.390       .  A
C277        H280   1.081       .  S
C278        C279   1.385       .  A
C278        C757   1.488       .  S
C279        H281   1.082       .  S
N282        N283   1.323       .  A
N282        C286   1.347       .  A
N283        C284   1.345       .  A
C284        C285   1.383       .  A
C284        H287   1.082       .  S
C285        C286   1.386       .  A
C285        C772   1.480       .  S
C286        H288   1.082   1_545  S
C289        C290   1.407       .  A
C289        C294   1.405       .  A
C289        C760   1.486       .  S
C290        C291   1.404       .  A
C290        H295   1.083       .  S
C291        C292   1.403       .  A
C291        C721   1.480       .  S
C292        C293   1.403       .  A
C292        H296   1.084       .  S
C293        C294   1.405       .  A
C293        C733   1.485   1_565  S
C294        H297   1.084   1_565  S
N298        N299   1.319       .  A
N298        C302   1.347       .  A
N298       Cu306   2.074       .  S
N299        C300   1.340       .  A
N299       Cu305   2.057       .  S
C300        C301   1.383       .  A
C300        H303   1.081       .  S
C301        C302   1.389       .  A
C301        C748   1.481       .  S
C302        H304   1.082       .  S
Cu305       N308   2.057       .  S
Cu306       N316   2.076       .  S
Cu307       N309   2.087       .  S
Cu307       N315   2.089       .  S
N308        N309   1.320       .  A
N308        C312   1.340       .  A
N309        C310   1.349       .  A
C310        C311   1.393       .  A
C310        H313   1.082       .  S
C311        C312   1.385       .  A
C311        C709   1.489       .  S
C312        H314   1.080       .  S
N315        N316   1.323       .  A
N315        C319   1.345       .  A
N316        C317   1.343       .  A
C317        C318   1.388       .  A
C317        H320   1.079       .  S
C318        C319   1.391       .  A
C318        C796   1.493       .  S
C319        H321   1.081       .  S
C322        C323   1.406       .  A
C322        C327   1.406       .  A
C322        C712   1.489       .  S
C323        C324   1.405       .  A
C323        H328   1.083       .  S
C324        C325   1.406       .  A
C324        C697   1.482       .  S
C325        C326   1.403       .  A
C325        H329   1.083       .  S
C326        C327   1.404       .  A
C326        C688   1.486       .  S
C327        H330   1.084       .  S
N331        N332   1.319       .  A
N331        C335   1.349       .  A
N331       Cu339   2.077       .  S
N332        C333   1.339       .  A
N332       Cu338   2.057       .  S
C333        C334   1.384       .  A
C333        H336   1.081       .  S
C334        C335   1.391       .  A
C334        C661   1.486       .  S
C335        H337   1.082       .  S
Cu338       N341   2.057       .  S
Cu339       N349   2.079       .  S
Cu340       N342   2.087       .  S
Cu340       N348   2.089       .  S
N341        N342   1.319       .  A
N341        C345   1.340       .  A
N342        C343   1.349       .  A
C343        C344   1.393       .  A
C343        H346   1.080       .  S
C344        C345   1.385       .  A
C344        C673   1.490       .  S
C345        H347   1.081       .  S
N348        N349   1.324       .  A
N348        C352   1.347       .  A
N349        C350   1.342       .  A
C350        C351   1.387       .  A
C350        H353   1.081       .  S
C351        C352   1.392       .  A
C351        C880   1.493       .  S
C352        H354   1.080       .  S
C355        C356   1.403       .  A
C355        C360   1.403       .  A
C355        C676   1.481       .  S
C356        C357   1.404       .  A
C356        H361   1.084       .  S
C357        C358   1.405       .  A
C357        C700   1.482       .  S
C358        C359   1.403       .  A
C358        H362   1.084       .  S
C359        C360   1.403       .  A
C359        C649   1.474       .  S
C360        H363   1.084       .  S
N364        N365   1.320       .  A
N364        C368   1.347       .  A
N364       Cu372   2.071       .  S
N365        C366   1.341       .  A
N365       Cu371   2.070       .  S
C366        C367   1.387       .  A
C366        H369   1.082       .  S
C367        C368   1.388       .  A
C367        C664   1.486       .  S
C368        H370   1.081       .  S
Cu371       N374   2.070       .  S
Cu372       N382   2.072       .  S
Cu373       N375   2.077       .  S
Cu373       N381   2.078       .  S
N374        N375   1.321       .  A
N374        C378   1.343       .  A
N375        C376   1.347       .  A
C376        C377   1.388       .  A
C376        H379   1.081       .  S
C377        C378   1.385       .  A
C377        C637   1.483       .  S
C378        H380   1.082       .  S
N381        N382   1.322       .  A
N381        C385   1.345       .  A
N382        C383   1.343       .  A
C383        C384   1.387       .  A
C383        H386   1.081       .  S
C384        C385   1.389       .  A
C384        C844   1.487       .  S
C385        H387   1.080       .  S
C388        C389   1.406       .  A
C388        C393   1.404       .  A
C388        C640   1.487       .  S
C389        C390   1.408       .  A
C389        H394   1.083       .  S
C390        C391   1.405       .  A
C390        C736   1.488       .  S
C391        C392   1.402       .  A
C391        H395   1.083       .  S
C392        C393   1.404       .  A
C392        C625   1.484       .  S
C393        H396   1.084       .  S
N397        N398   1.319       .  A
N397        C401   1.345       .  A
N397       Cu405   2.079       .  S
N398        C399   1.342       .  A
N398       Cu404   2.057       .  S
C399        C400   1.385       .  A
C399        H402   1.082       .  S
C400        C401   1.390       .  A
C400        C601   1.486       .  S
C401        H403   1.081       .  S
Cu404       N407   2.056       .  S
Cu405       N415   2.080       .  S
Cu406       N408   2.085       .  S
Cu406       N414   2.085       .  S
N407        N408   1.321       .  A
N407        C411   1.341       .  A
N408        C409   1.347       .  A
C409        C410   1.388       .  A
C409        H412   1.081       .  S
C410        C411   1.381       .  A
C410        C613   1.480       .  S
C411        H413   1.082       .  S
N414        N415   1.321       .  A
N414        C418   1.347       .  A
N415        C416   1.344       .  A
C416        C417   1.391       .  A
C416        H419   1.081       .  S
C417        C418   1.392       .  A
C417       C1072   1.497       .  S
C418        H420   1.079       .  S
C421        C422   1.405       .  A
C421        C426   1.404       .  A
C421        C616   1.485       .  S
C422        C423   1.405       .  A
C422        H427   1.083       .  S
C423        C424   1.406       .  A
C423        C652   1.486       .  S
C424        C425   1.404       .  A
C424        H428   1.084       .  S
C425        C426   1.402       .  A
C425        C589   1.482       .  S
C426        H429   1.084       .  S
N430        N431   1.319       .  A
N430        C434   1.346       .  A
N430       Cu438   2.072       .  S
N431        C432   1.341       .  A
N431       Cu437   2.051       .  S
C432        C433   1.382       .  A
C432        H435   1.082       .  S
C433        C434   1.387       .  A
C433        C604   1.476       .  S
C434        H436   1.082       .  S
Cu437       N440   2.050       .  S
Cu438       N448   2.074       .  S
Cu439       N441   2.078       .  S
Cu439       N447   2.079       .  S
N440        N441   1.320       .  A
N440        C444   1.337       .  A
N441        C442   1.349       .  A
C442        C443   1.391       .  A
C442        H445   1.081       .  S
C443        C444   1.381       .  A
C443        C577   1.482       .  S
C444        H446   1.081       .  S
N447        N448   1.325       .  A
N447        C451   1.346       .  A
N448        C449   1.343       .  A
C449        C450   1.381       .  A
C449        H452   1.082       .  S
C450        C451   1.383       .  A
C450       C1024   1.475       .  S
C451        H453   1.082       .  S
C454        C455   1.406       .  A
C454        C459   1.406       .  A
C454        C580   1.483       .  S
C455        C456   1.403       .  A
C455        H460   1.084       .  S
C456        C457   1.400       .  A
C456        C628   1.473       .  S
C457        C458   1.400       .  A
C457        H461   1.084       .  S
C458        C459   1.401       .  A
C458        C565   1.480       .  S
C459        H462   1.084       .  S
N463        N464   1.319       .  A
N463        C467   1.345       .  A
N463       Cu471   2.064       .  S
N464        C465   1.342       .  A
N464       Cu470   2.061       .  S
C465        C466   1.383       .  A
C465        H468   1.082       .  S
C466        C467   1.385       .  A
C466        C541   1.475       .  S
C467        H469   1.082       .  S
Cu470       N473   2.061       .  S
Cu471       N481   2.066       .  S
Cu472       N474   2.094       .  S
Cu472       N480   2.094       .  S
N473        N474   1.322       .  A
N473        C477   1.340       .  A
N474        C475   1.350       .  A
C475        C476   1.390       .  A
C475        H478   1.082       .  S
C476        C477   1.380       .  A
C476        C553   1.482       .  S
C477        H479   1.081       .  S
N480        N481   1.322       .  A
N480        C484   1.348       .  A
N481        C482   1.341       .  A
C482        C483   1.386       .  A
C482        H485   1.079       .  S
C483        C484   1.393       .  A
C483        C928   1.493       .  S
C484        H486   1.081       .  S
C487        C488   1.405       .  A
C487        C492   1.404       .  A
C487        C556   1.486       .  S
C488        C489   1.406       .  A
C488        H493   1.084       .  S
C489        C490   1.403       .  A
C489        C724   1.484       .  S
C490        C491   1.403       .  A
C490        H494   1.083       .  S
C491        C492   1.404       .  A
C491        C568   1.481       .  S
C492        H495   1.084       .  S
N496        N497   1.321       .  A
N496        C500   1.346       .  A
N496       Cu504   2.075       .  S
N497        C498   1.342       .  A
N497       Cu503   2.068       .  S
C498        C499   1.385       .  A
C498        H501   1.081       .  S
C499        C500   1.388       .  A
C499        C544   1.483       .  S
C500        H502   1.082       .  S
Cu503       N506   2.068       .  S
Cu504       N514   2.076       .  S
Cu505       N507   2.087       .  S
Cu505       N513   2.088       .  S
N506        N507   1.321       .  A
N506        C510   1.343       .  A
N507        C508   1.349       .  A
C508        C509   1.390       .  A
C508        H511   1.081       .  S
C509        C510   1.385       .  A
C509        C529   1.487       .  S
C510        H512   1.082       .  S
N513        N514   1.322       .  A
N513        C517   1.345       .  A
N514        C515   1.346       .  A
C515        C516   1.389       .  A
C515        H518   1.080       .  S
C516        C517   1.390       .  A
C516        C964   1.492       .  S
C517        H519   1.081       .  S
C520        C521   1.408       .  A
C520        C525   1.408       .  A
C520        C532   1.490       .  S
C521        C522   1.403       .  A
C521        H526   1.084       .  S
C522        C523   1.401       .  A
C522        C685   1.476       .  S
C523        C524   1.403       .  A
C523        H527   1.084       .  S
C524        C525   1.406       .  A
C524        C592   1.486       .  S
C525        H528   1.082       .  S
C529        C530   1.405       .  A
C529        C534   1.410       .  A
C530        C531   1.401       .  A
C530        H535   1.083       .  S
C531        C532   1.410       .  A
C531        O536   1.372       .  S
C532        C533   1.406       .  A
C533        C534   1.405       .  A
C533        H537   1.083       .  S
C534        O538   1.371       .  S
O536        H540   0.992       .  S
O538        H539   0.992       .  S
C541        C542   1.402       .  A
C541        C546   1.408       .  A
C542        C543   1.397       .  A
C542        H547   1.084       .  S
C543        C544   1.411       .  A
C543        O548   1.371       .  S
C544        C545   1.406       .  A
C545        C546   1.401       .  A
C545        H549   1.083       .  S
C546        O550   1.372       .  S
O548        H552   0.992       .  S
O550        H551   0.992       .  S
C553        C554   1.404       .  A
C553        C558   1.410       .  A
C554        C555   1.403       .  A
C554        H559   1.083       .  S
C555        C556   1.411       .  A
C555        O560   1.371       .  S
C556        C557   1.403       .  A
C557        C558   1.400       .  A
C557        H561   1.084       .  S
C558        O562   1.373       .  S
O560        H564   0.992       .  S
O562        H563   0.992       .  S
C565        C566   1.404       .  A
C565        C570   1.409       .  A
C566        C567   1.401       .  A
C566        H571   1.084       .  S
C567        C568   1.410       .  A
C567        O572   1.372       .  S
C568        C569   1.403       .  A
C569        C570   1.398       .  A
C569        H573   1.084       .  S
C570        O574   1.372       .  S
O572        H576   0.992       .  S
O574        H575   0.992       .  S
C577        C578   1.405       .  A
C577        C582   1.410       .  A
C578        C579   1.393       .  A
C578        H583   1.082       .  S
C579        C580   1.409       .  A
C579        O584   1.372       .  S
C580        C581   1.405       .  A
C581        C582   1.404       .  A
C581        H585   1.083       .  S
C582        O586   1.371       .  S
O584        H588   0.992       .  S
O586        H587   0.992       .  S
C589        C590   1.403       .  A
C589        C594   1.408       .  A
C590        C591   1.401       .  A
C590        H595   1.084       .  S
C591        C592   1.410       .  A
C591        O596   1.372       .  S
C592        C593   1.406       .  A
C593        C594   1.401       .  A
C593        H597   1.084       .  S
C594        O598   1.372       .  S
O596        H600   0.992       .  S
O598        H599   0.992       .  S
C601        C602   1.406   1_455  A
C601        C606   1.413       .  A
C602        C603   1.398       .  A
C602        H607   1.083   1_655  S
C603        C604   1.408       .  A
C603        O608   1.372       .  S
C604        C605   1.402       .  A
C605        C606   1.400   1_655  A
C605        H609   1.083       .  S
C606        O610   1.370       .  S
O608        H612   0.992       .  S
O610        H611   0.992       .  S
C613        C614   1.405       .  A
C613        C618   1.407       .  A
C614        C615   1.398       .  A
C614        H619   1.083       .  S
C615        C616   1.410       .  A
C615        O620   1.372       .  S
C616        C617   1.406       .  A
C617        C618   1.401       .  A
C617        H621   1.083       .  S
C618        O622   1.371       .  S
O620        H624   0.992       .  S
O622        H623   0.992       .  S
C625        C626   1.405       .  A
C625        C630   1.412       .  A
C626        C627   1.397       .  A
C626        H631   1.084       .  S
C627        C628   1.405       .  A
C627        O632   1.372       .  S
C628        C629   1.401       .  A
C629        C630   1.403       .  A
C629        H633   1.084       .  S
C630        O634   1.372       .  S
O632        H636   0.992       .  S
O634        H635   0.992       .  S
C637        C638   1.404       .  A
C637        C642   1.410       .  A
C638        C639   1.398       .  A
C638        H643   1.083       .  S
C639        C640   1.411       .  A
C639        O644   1.372       .  S
C640        C641   1.405       .  A
C641        C642   1.404       .  A
C641        H645   1.083       .  S
C642        O646   1.371       .  S
O644        H648   0.992       .  S
O646        H647   0.992       .  S
C649        C650   1.401       .  A
C649        C654   1.405       .  A
C650        C651   1.401       .  A
C650        H655   1.084       .  S
C651        C652   1.412       .  A
C651        O656   1.372       .  S
C652        C653   1.406       .  A
C653        C654   1.401       .  A
C653        H657   1.083       .  S
C654        O658   1.372       .  S
O656        H660   0.992       .  S
O658        H659   0.992       .  S
C661        C662   1.406       .  A
C661        C666   1.411       .  A
C662        C663   1.405       .  A
C662        H667   1.083       .  S
C663        C664   1.412   1_455  A
C663        O668   1.371   1_455  S
C664        C665   1.403       .  A
C665        C666   1.395   1_655  A
C665        H669   1.083       .  S
C666        O670   1.371       .  S
O668        H672   0.992   1_655  S
O670        H671   0.992       .  S
C673        C674   1.408       .  A
C673        C678   1.413       .  A
C674        C675   1.398       .  A
C674        H679   1.082       .  S
C675        C676   1.406       .  A
C675        O680   1.373       .  S
C676        C677   1.403       .  A
C677        C678   1.404       .  A
C677        H681   1.084       .  S
C678        O682   1.370       .  S
O680        H684   0.992       .  S
O682        H683   0.992       .  S
C685        C686   1.402   1_565  A
C685        C690   1.406       .  A
C686        C687   1.403       .  A
C686        H691   1.084   1_545  S
C687        C688   1.411       .  A
C687        O692   1.371       .  S
C688        C689   1.406       .  A
C689        C690   1.398   1_545  A
C689        H693   1.084       .  S
C690        O694   1.372       .  S
O692        H696   0.992       .  S
O694        H695   0.992       .  S
C697        C698   1.404       .  A
C697        C702   1.409       .  A
C698        C699   1.402       .  A
C698        H703   1.084       .  S
C699        C700   1.409       .  A
C699        O704   1.372       .  S
C700        C701   1.404       .  A
C701        C702   1.400       .  A
C701        H705   1.084       .  S
C702        O706   1.372       .  S
O704        H708   0.992       .  S
O706        H707   0.992       .  S
C709        C710   1.406       .  A
C709        C714   1.413       .  A
C710        C711   1.405       .  A
C710        H715   1.083       .  S
C711        C712   1.411       .  A
C711        O716   1.372       .  S
C712        C713   1.403       .  A
C713        C714   1.396       .  A
C713        H717   1.084       .  S
C714        O718   1.371       .  S
O716        H720   0.992       .  S
O718        H719   0.992       .  S
C721        C722   1.403       .  A
C721        C726   1.408       .  A
C722        C723   1.402       .  A
C722        H727   1.084       .  S
C723        C724   1.412       .  A
C723        O728   1.372       .  S
C724        C725   1.403       .  A
C725        C726   1.399       .  A
C725        H729   1.084       .  S
C726        O730   1.372       .  S
O728        H732   0.992       .  S
O730        H731   0.992       .  S
C733        C734   1.404       .  A
C733        C738   1.410       .  A
C734        C735   1.400       .  A
C734        H739   1.084       .  S
C735        C736   1.412       .  A
C735        O740   1.372       .  S
C736        C737   1.406       .  A
C737        C738   1.400       .  A
C737        H741   1.083       .  S
C738        O742   1.372       .  S
O740        H744   0.992       .  S
O742        H743   0.992       .  S
C745        C746   1.403       .  A
C745        C750   1.412       .  A
C746        C747   1.397       .  A
C746        H751   1.083   1_545  S
C747        C748   1.410       .  A
C747        O752   1.371       .  S
C748        C749   1.404       .  A
C749        C750   1.401       .  A
C749        H753   1.083       .  S
C750        O754   1.371       .  S
O752        H756   0.992   1_545  S
O754        H755   0.992       .  S
C757        C758   1.406       .  A
C757        C762   1.411       .  A
C758        C759   1.401       .  A
C758        H763   1.083       .  S
C759        C760   1.408       .  A
C759        O764   1.372       .  S
C760        C761   1.405       .  A
C761        C762   1.404       .  A
C761        H765   1.084       .  S
C762        O766   1.371   1_565  S
O764        H768   0.992       .  S
O766        H767   0.992   1_545  S
C769        C770   1.407   1_545  A
C769        C774   1.414       .  A
C770        C771   1.402       .  A
C770        H775   1.083       .  S
C771        C772   1.407   1_565  A
C771        O776   1.372       .  S
C772        C773   1.402       .  A
C773        C774   1.401       .  A
C773        H777   1.084       .  S
C774        O778   1.370       .  S
O776        H780   0.992       .  S
O778        H779   0.992       .  S
C781        C782   1.402   1_545  A
C781        C786   1.409       .  A
C782        C783   1.399       .  A
C782        H787   1.084       .  S
C783        C784   1.409   1_565  A
C783        O788   1.372       .  S
C784        C785   1.403       .  A
C785        C786   1.401       .  A
C785        H789   1.083       .  S
C786        O790   1.371       .  S
O788        H792   0.992       .  S
O790        H791   0.992       .  S
C793        C794   1.402       .  A
C793        C798   1.410       .  A
C794        C795   1.401       .  A
C794        H799   1.083       .  S
C795        C796   1.415       .  A
C795        O800   1.370       .  S
C796        C797   1.407       .  A
C797        C798   1.400       .  A
C797        H801   1.082       .  S
C798        O802   1.371       .  S
O800        H804   0.992       .  S
O802        H803   0.992       .  S
C805        C806   1.405       .  A
C805        C810   1.412       .  A
C806        C807   1.398   1_455  A
C806        H811   1.083       .  S
C807        C808   1.407       .  A
C807        O812   1.372       .  S
C808        C809   1.402   1_655  A
C809        C810   1.399       .  A
C809        H813   1.084       .  S
C810        O814   1.371       .  S
O812        H816   0.992       .  S
O814        H815   0.992       .  S
C817        C818   1.403       .  A
C817        C822   1.409       .  A
C818        C819   1.397       .  A
C818        H823   1.084       .  S
C819        C820   1.409       .  A
C819        O824   1.372       .  S
C820        C821   1.405       .  A
C821        C822   1.402       .  A
C821        H825   1.083       .  S
C822        O826   1.371       .  S
O824        H828   0.992       .  S
O826        H827   0.992       .  S
C829        C830   1.403       .  A
C829        C834   1.411       .  A
C830        C831   1.397       .  A
C830        H835   1.084       .  S
C831        C832   1.411       .  A
C831        O836   1.372       .  S
C832        C833   1.404       .  A
C833        C834   1.401       .  A
C833        H837   1.084   1_554  S
C834        O838   1.372       .  S
O836        H840   0.992       .  S
O838        H839   0.992       .  S
C841        C842   1.404       .  A
C841        C846   1.407       .  A
C842        C843   1.399       .  A
C842        H847   1.083       .  S
C843        C844   1.412       .  A
C843        O848   1.370       .  S
C844        C845   1.407       .  A
C845        C846   1.399       .  A
C845        H849   1.082       .  S
C846        O850   1.372       .  S
O848        H852   0.992       .  S
O850        H851   0.992       .  S
C853        C854   1.408       .  A
C853        C858   1.413       .  A
C854        C855   1.405       .  A
C854        H859   1.083       .  S
C855        C856   1.409       .  A
C855        O860   1.371       .  S
C856        C857   1.402       .  A
C857        C858   1.395       .  A
C857        H861   1.084       .  S
C858        O862   1.371       .  S
O860        H864   0.992       .  S
O862        H863   0.992       .  S
C865        C866   1.404       .  A
C865        C870   1.412       .  A
C866        C867   1.400       .  A
C866        H871   1.083       .  S
C867        C868   1.410       .  A
C867        O872   1.372       .  S
C868        C869   1.402       .  A
C869        C870   1.397       .  A
C869        H873   1.084       .  S
C870        O874   1.372       .  S
O872        H876   0.992       .  S
O874        H875   0.992       .  S
C877        C878   1.404       .  A
C877        C882   1.406       .  A
C878        C879   1.403       .  A
C878        H883   1.083       .  S
C879        C880   1.413       .  A
C879        O884   1.371       .  S
C880        C881   1.408       .  A
C881        C882   1.399       .  A
C881        H885   1.081       .  S
C882        O886   1.372       .  S
O884        H888   0.992       .  S
O886        H887   0.992       .  S
C889        C890   1.402       .  A
C889        C894   1.410       .  A
C890        C891   1.396       .  A
C890        H895   1.083       .  S
C891        C892   1.411       .  A
C891        O896   1.371       .  S
C892        C893   1.407       .  A
C893        C894   1.404       .  A
C893        H897   1.083       .  S
C894        O898   1.371       .  S
O896        H900   0.992       .  S
O898        H899   0.992       .  S
C901        C902   1.406       .  A
C901        C906   1.411       .  A
C902        C903   1.396       .  A
C902        H907   1.082       .  S
C903        C904   1.407       .  A
C903        O908   1.372       .  S
C904        C905   1.406       .  A
C905        C906   1.406       .  A
C905        H909   1.084       .  S
C906        O910   1.371       .  S
O908        H912   0.992       .  S
O910        H911   0.992       .  S
C913        C914   1.402       .  A
C913        C918   1.406       .  A
C914        C915   1.401       .  A
C914        H919   1.084       .  S
C915        C916   1.413       .  A
C915        O920   1.373       .  S
C916        C917   1.407       .  A
C917        C918   1.400       .  A
C917        H921   1.083       .  S
C918        O922   1.372       .  S
O920        H924   0.992       .  S
O922        H923   0.992   1_554  S
C925        C926   1.404       .  A
C925        C930   1.414       .  A
C926        C927   1.400       .  A
C926        H931   1.082       .  S
C927        C928   1.414       .  A
C927        O932   1.371       .  S
C928        C929   1.405       .  A
C929        C930   1.401       .  A
C929        H933   1.082       .  S
C930        O934   1.370       .  S
O932        H936   0.992       .  S
O934        H935   0.992       .  S
C937        C938   1.407       .  A
C937        C942   1.412       .  A
C938        C939   1.395       .  A
C938        H943   1.081       .  S
C939        C940   1.406       .  A
C939        O944   1.373       .  S
C940        C941   1.406       .  A
C941        C942   1.405       .  A
C941        H945   1.084       .  S
C942        O946   1.371       .  S
O944        H948   0.992       .  S
O946        H947   0.992       .  S
C949        C950   1.400       .  A
C949        C954   1.408       .  A
C950        C951   1.399       .  A
C950        H955   1.084       .  S
C951        C952   1.414       .  A
C951        O956   1.372       .  S
C952        C953   1.406       .  A
C953        C954   1.400       .  A
C953        H957   1.083       .  S
C954        O958   1.372       .  S
O956        H960   0.992       .  S
O958        H959   0.992       .  S
C961        C962   1.403       .  A
C961        C966   1.408       .  A
C962        C963   1.402       .  A
C962        H967   1.083       .  S
C963        C964   1.415       .  A
C963        O968   1.371       .  S
C964        C965   1.407       .  A
C965        C966   1.399       .  A
C965        H969   1.082       .  S
C966        O970   1.371       .  S
O968        H972   0.992       .  S
O970        H971   0.992       .  S
C973        C974   1.404   1_655  A
C973        C978   1.411   1_655  A
C974        C975   1.397       .  A
C974        H979   1.083       .  S
C975        C976   1.412       .  A
C975        O980   1.372       .  S
C976        C977   1.404       .  A
C977        C978   1.400       .  A
C977        H981   1.083       .  S
C978        O982   1.370   1_455  S
O980        H984   0.993       .  S
O982        H983   0.992       .  S
C985        C986   1.407       .  A
C985        C990   1.410       .  A
C986        C987   1.399       .  A
C986        H991   1.083   1_565  S
C987        C988   1.406       .  A
C987        O992   1.372   1_565  S
C988        C989   1.404       .  A
C989        C990   1.403       .  A
C989        H993   1.084       .  S
C990        O994   1.371       .  S
O992        H996   0.992       .  S
O994        H995   0.992       .  S
C997        C998   1.407       .  A
C997       C1002   1.414       .  A
C998        C999   1.398       .  A
C998       H1003   1.083       .  S
C999       C1000   1.403       .  A
C999       O1004   1.371       .  S
C1000      C1001   1.401       .  A
C1001      C1002   1.401       .  A
C1001      H1005   1.084       .  S
C1002      O1006   1.373       .  S
O1004      H1008   0.992       .  S
O1006      H1007   0.992   1_554  S
C1009      C1010   1.402       .  A
C1009      C1014   1.408       .  A
C1010      C1011   1.398       .  A
C1010      H1015   1.084       .  S
C1011      C1012   1.409       .  A
C1011      O1016   1.372   1_554  S
C1012      C1013   1.405       .  A
C1013      C1014   1.401       .  A
C1013      H1017   1.084       .  S
C1014      O1018   1.372       .  S
O1016      H1020   0.992       .  S
O1018      H1019   0.992       .  S
C1021      C1022   1.407       .  A
C1021      C1026   1.414       .  A
C1022      C1023   1.398       .  A
C1022      H1027   1.082       .  S
C1023      C1024   1.405       .  A
C1023      O1028   1.372       .  S
C1024      C1025   1.401       .  A
C1025      C1026   1.401       .  A
C1025      H1029   1.084       .  S
C1026      O1030   1.371       .  S
O1028      H1032   0.992       .  S
O1030      H1031   0.992       .  S
C1033      C1034   1.401       .  A
C1033      C1038   1.406       .  A
C1034      C1035   1.399       .  A
C1034      H1039   1.084       .  S
C1035      C1036   1.412       .  A
C1035      O1040   1.372       .  S
C1036      C1037   1.407       .  A
C1037      C1038   1.402       .  A
C1037      H1041   1.083       .  S
C1038      O1042   1.372       .  S
O1040      H1044   0.992       .  S
O1042      H1043   0.992       .  S
C1045      C1046   1.401       .  A
C1045      C1050   1.409       .  A
C1046      C1047   1.398       .  A
C1046      H1051   1.084       .  S
C1047      C1048   1.413       .  A
C1047      O1052   1.372       .  S
C1048      C1049   1.404       .  A
C1049      C1050   1.399       .  A
C1049      H1053   1.083   1_554  S
C1050      O1054   1.372       .  S
O1052      H1056   0.992       .  S
O1054      H1055   0.992       .  S
C1057      C1058   1.403       .  A
C1057      C1062   1.410       .  A
C1058      C1059   1.399       .  A
C1058      H1063   1.084   1_554  S
C1059      C1060   1.412       .  A
C1059      O1064   1.372       .  S
C1060      C1061   1.403       .  A
C1061      C1062   1.398       .  A
C1061      H1065   1.084       .  S
C1062      O1066   1.372       .  S
O1064      H1068   0.992       .  S
O1066      H1067   0.992       .  S
C1069      C1070   1.406       .  A
C1069      C1074   1.410       .  A
C1070      C1071   1.404       .  A
C1070      H1075   1.083       .  S
C1071      C1072   1.415       .  A
C1071      O1076   1.370       .  S
C1072      C1073   1.407       .  A
C1073      C1074   1.400       .  A
C1073      H1077   1.081       .  S
C1074      O1078   1.371       .  S
O1076      H1080   0.992       .  S
O1078      H1079   0.992       .  S
C1081      C1082   1.403       .  A
C1081      C1086   1.410       .  A
C1082      C1083   1.401       .  A
C1082      H1087   1.083       .  S
C1083      C1084   1.411       .  A
C1083      O1088   1.372       .  S
C1084      C1085   1.405       .  A
C1085      C1086   1.401       .  A
C1085      H1089   1.083       .  S
C1086      O1090   1.371       .  S
O1088      H1092   0.992       .  S
O1090      H1091   0.992       .  S
C1093      C1094   1.405       .  A
C1093      C1098   1.412       .  A
C1094      C1095   1.397       .  A
C1094      H1099   1.083       .  S
C1095      C1096   1.404       .  A
C1095      O1100   1.372       .  S
C1096      C1097   1.403       .  A
C1097      C1098   1.405       .  A
C1097      H1101   1.084       .  S
C1098      O1102   1.371       .  S
O1100      H1104   0.992       .  S
O1102      H1103   0.992       .  S
