geometry optimzed in LAMMPS
_audit_creation_date              2020-11-30 
_audit_creation_method            'lammps2cif' 
_symmetry_space_group_name_H-M    'P1' 
_symmetry_Int_Tables_number       1 
_symmetry_cell_setting            triclinic 
loop_ 
_symmetry_equiv_pos_as_xyz 
  x,y,z 
_cell_length_a                    85.20180236 
_cell_length_b                    85.9167122797983 
_cell_length_c                    28.439418132481606 
_cell_angle_alpha                 90.85205890590683 
_cell_angle_beta                  89.22971525827596 
_cell_angle_gamma                 121.31355339606088 
loop_ 
_atom_site_label 
_atom_site_type_symbol 
_atom_site_fract_x 
_atom_site_fract_y 
_atom_site_fract_z 
_atom_site_charge 
C1          C  0.66113514  0.45179560  0.98406705    -0.01900
C2          C  0.54664167  0.33712243  0.00653323    -0.01900
C3          C  0.33291871  0.56093937  0.99519280    -0.01900
C4          C  0.45054129  0.67037242  0.00128136    -0.01900
In5        In  0.45479562  0.36854129  0.26396149     1.36900
C6          C  0.46395466  0.35209259  0.19795988     0.78200
O7          O  0.47870356  0.39259528  0.29905566    -0.60300
O8          O  0.47356062  0.39523791  0.22791888    -0.51200
C9          C  0.42566664  0.37264558  0.26177446     0.70800
O10         O  0.43721376  0.37860722  0.29430980    -0.46000
C11         C  0.45546142  0.35431577  0.34467399     0.75500
O12         O  0.46394264  0.36651748  0.19152842    -0.57900
O13         O  0.46947050  0.36719031  0.32504499    -0.48000
O14         O  0.45740839  0.34473160  0.23707252    -0.54300
C15         C  0.48360992  0.40248611  0.26330425     0.85700
O16         O  0.42819543  0.36343272  0.23100282    -0.56200
O17         O  0.44073815  0.34748294  0.32119788    -0.59500
In18       In  0.62975666  0.54324356  0.24569602     1.36900
C19         C  0.62754791  0.57090109  0.21059667     0.78200
O20         O  0.60811789  0.51920625  0.28638578    -0.60300
O21         O  0.60205754  0.52272858  0.21681499    -0.51200
C22         C  0.64785895  0.53021097  0.19757095     0.70800
O23         O  0.64573876  0.54266221  0.18203963    -0.46000
C24         C  0.64002985  0.55482190  0.33271014     0.75500
O25         O  0.64070972  0.57357969  0.23634035    -0.57900
O26         O  0.62470590  0.55093368  0.31642016    -0.48000
O27         O  0.61658906  0.55441518  0.20020016    -0.54300
C28         C  0.59667919  0.51330307  0.25351547     0.85700
O29         O  0.64224720  0.52564757  0.23899556    -0.56200
O30         O  0.65073714  0.55361800  0.30365632    -0.59500
In31       In  0.46596821  0.38231445  0.74848741     1.36900
C32         C  0.43647734  0.38530457  0.76701844     0.78200
O33         O  0.48539705  0.40946381  0.78106176    -0.60300
O34         O  0.48161779  0.40789496  0.70693943    -0.51200
C35         C  0.48126560  0.36725710  0.79956423     0.70800
O36         O  0.46423193  0.36141631  0.80168120    -0.46000
C37         C  0.46324710  0.36686301  0.66516544     0.75500
O38         O  0.44903820  0.38980215  0.79668082    -0.57900
O39         O  0.47580726  0.38277880  0.67596300    -0.48000
O40         O  0.43804789  0.37760129  0.73088375    -0.54300
C41         C  0.48977393  0.41766566  0.74227497     0.85700
O42         O  0.48996801  0.38043270  0.77225265    -0.56200
O43         O  0.45168263  0.35833012  0.69755629    -0.59500
In44       In  0.63554322  0.54938635  0.74817525     1.36900
C45         C  0.64674776  0.52797401  0.78321073     0.78200
O46         O  0.60732599  0.53461581  0.77865748    -0.60300
O47         O  0.61035963  0.53119020  0.70561869    -0.51200
C48         C  0.63811003  0.57698228  0.79913838     0.70800
O49         O  0.62854569  0.56058744  0.81113430    -0.46000
C50         C  0.64603271  0.56004555  0.66057017     0.75500
O51         O  0.65614017  0.54510896  0.78840596    -0.57900
O52         O  0.63319948  0.56073459  0.68094289    -0.48000
O53         O  0.63269766  0.52233553  0.75846050    -0.54300
C54         C  0.59969116  0.52712092  0.74041369     0.85700
O55         O  0.64845875  0.57970066  0.76413561    -0.56200
O56         O  0.65469576  0.55514208  0.68620119    -0.59500
In57       In  0.36675321  0.47114595  0.72991606     1.36900
C58         C  0.35550275  0.48939328  0.78343939     0.78200
O59         O  0.39341287  0.48484704  0.76779986    -0.60300
O60         O  0.39382428  0.48759946  0.69340610    -0.51200
C61         C  0.36785877  0.44135484  0.74768932     0.70800
O62         O  0.36745398  0.44642979  0.70666138    -0.46000
C63         C  0.35048767  0.46833979  0.64921294     0.75500
O64         O  0.34614355  0.47216821  0.78072451    -0.57900
O65         O  0.36616942  0.48150670  0.65976843    -0.48000
O66         O  0.36985805  0.49668884  0.75876775    -0.54300
C67         C  0.40285770  0.49140980  0.73095032     0.85700
O68         O  0.36549951  0.45024798  0.77986384    -0.56200
O69         O  0.34256755  0.45642506  0.68073998    -0.59500
In70       In  0.54273374  0.62825014  0.76775514     1.36900
C71         C  0.57179164  0.63045642  0.81038328     0.78200
O72         O  0.52536504  0.59950623  0.79414483    -0.60300
O73         O  0.52393532  0.60454584  0.72198018    -0.51200
C74         C  0.52434032  0.64192641  0.81285798     0.70800
O75         O  0.54170837  0.65049510  0.81164377    -0.46000
C76         C  0.55213482  0.63995703  0.67910665     0.75500
O77         O  0.55544194  0.61909710  0.82173777    -0.57900
O78         O  0.54454725  0.64580953  0.70663764    -0.48000
O79         O  0.57341119  0.64191750  0.78055070    -0.54300
C80         C  0.51818982  0.59312736  0.75466157     0.85700
O81         O  0.51688867  0.62692209  0.79145577    -0.56200
O82         O  0.55560110  0.62882963  0.69753935    -0.59500
In83       In  0.36372110  0.46752088  0.24962149     1.36900
C84         C  0.36581011  0.43746713  0.25036501     0.78200
O85         O  0.38542861  0.49197207  0.28755050    -0.60300
O86         O  0.39386575  0.48059579  0.23324809    -0.51200
C87         C  0.35300657  0.48117038  0.18077439     0.70800
O88         O  0.36860110  0.48297773  0.18225171    -0.46000
C89         C  0.34591596  0.46534831  0.32805614     0.75500
O90         O  0.36891525  0.44775848  0.28525425    -0.57900
O91         O  0.35893834  0.48014081  0.31216065    -0.48000
O92         O  0.36041244  0.44179618  0.21427358    -0.54300
C93         C  0.39849572  0.49280898  0.26429388     0.85700
O94         O  0.34187773  0.47036378  0.21111631    -0.56200
O95         O  0.34057984  0.45162187  0.30129421    -0.59500
In96       In  0.54036592  0.63430073  0.26025738     1.36900
C97         C  0.52473511  0.64766680  0.20416415     0.78200
O98         O  0.51362718  0.61520715  0.29660497    -0.60300
O99         O  0.52537318  0.60410479  0.25083380    -0.51200
C100        C  0.56847133  0.63409939  0.21694378     0.70800
O101        O  0.57098641  0.64660441  0.24532231    -0.46000
C102        C  0.55048959  0.64373532  0.35018223     0.75500
O103        O  0.51894560  0.63114309  0.21025827    -0.57900
O104        O  0.54517032  0.65219146  0.32526181    -0.48000
O105        O  0.53929528  0.65823452  0.22655147    -0.54300
C106        C  0.51210326  0.60120900  0.27701785     0.85700
O107        O  0.55190563  0.62318133  0.20713560    -0.56200
O108        O  0.55089169  0.63100310  0.32887721    -0.59500
C109        C  0.33575743  0.78054872  0.01313007    -0.01900
C110        C  0.44840827  0.78192007  0.99626846    -0.01900
In111      In  0.45389996  0.09543358  0.28017931     1.36900
C112        C  0.42321853  0.06278823  0.26667207     0.78200
O113        O  0.46758041  0.08103978  0.25037348    -0.60300
O114        O  0.47704263  0.09517271  0.31539720    -0.51200
C115        C  0.46845325  0.12339929  0.22014163     0.70800
O116        O  0.45693601  0.12168892  0.25115511    -0.46000
C117        C  0.45288954  0.10818737  0.36508538     0.75500
O118        O  0.43241662  0.06757597  0.30388354    -0.57900
O119        O  0.46736722  0.11062035  0.34570449    -0.48000
O120        O  0.42884779  0.07523008  0.23637008    -0.54300
C121        C  0.47877441  0.08579687  0.28371479     0.85700
O122        O  0.47087977  0.11021784  0.21753044    -0.56200
O123        O  0.43868669  0.10012795  0.33964742    -0.59500
In124      In  0.45452363  0.09082875  0.77426322     1.36900
C125        C  0.42333312  0.05989245  0.79523156     0.78200
O126        O  0.44191461  0.09931918  0.71836015    -0.60300
O127        O  0.46778482  0.10189197  0.70471409    -0.51200
C128        C  0.47251559  0.12212187  0.82315510     0.70800
O129        O  0.48003895  0.11514309  0.80019083    -0.46000
C130        C  0.47356406  0.07460241  0.77770870     0.75500
O131        O  0.42664889  0.06714316  0.75537023    -0.57900
O132        O  0.46641550  0.07552391  0.74012579    -0.48000
O133        O  0.43470717  0.06972634  0.82649057    -0.54300
C134        C  0.45498788  0.10370392  0.68960409     0.85700
O135        O  0.45510699  0.11298153  0.82197928    -0.56200
O136        O  0.47066265  0.08165370  0.81330535    -0.59500
In137      In  0.36998178  0.90501638  0.75147664     1.36900
C138        C  0.35933614  0.87691342  0.80980098     0.78200
O139        O  0.36732498  0.88907135  0.68674628    -0.60300
O140        O  0.34615029  0.89466409  0.70092563    -0.51200
C141        C  0.36908522  0.93495337  0.77421440     0.70800
O142        O  0.36599149  0.92818845  0.73337052    -0.46000
C143        C  0.40590981  0.92245522  0.73519218     0.75500
O144        O  0.37497914  0.88583607  0.79125089    -0.57900
O145        O  0.39434888  0.91542288  0.70258339    -0.48000
O146        O  0.34880153  0.88266115  0.80008670    -0.54300
C147        C  0.35265487  0.88773049  0.67322552     0.85700
O148        O  0.37102516  0.92554242  0.80456151    -0.56200
O149        O  0.39912006  0.92106610  0.77561288    -0.59500
In150      In  0.36870787  0.90697770  0.27778235     1.36900
C151        C  0.35842574  0.87969766  0.21430237     0.78200
O152        O  0.39810657  0.92457085  0.25522396    -0.60300
O153        O  0.39280577  0.91280577  0.32290606    -0.51200
C154        C  0.36767044  0.93755804  0.26514979     0.70800
O155        O  0.36649282  0.93059696  0.30462666    -0.46000
C156        C  0.35138938  0.88940114  0.35570246     0.75500
O157        O  0.34682883  0.88284927  0.23318735    -0.57900
O158        O  0.34559839  0.89753849  0.33121528    -0.48000
O159        O  0.37470576  0.89103978  0.22542109    -0.54300
C160        C  0.40456818  0.92198242  0.29179845     0.85700
O161        O  0.36796746  0.92815142  0.23098511    -0.56200
O162        O  0.36526304  0.88961288  0.33902585    -0.59500
C163        C  0.65663827  0.22419666  0.99958321    -0.01900
C164        C  0.54384621  0.22310098  0.01905044    -0.01900
In165      In  0.61695024  0.09534830  0.75149179     1.36900
C166        C  0.63080147  0.12816257  0.79249251     0.78200
O167        O  0.61290055  0.10201853  0.67889090    -0.60300
O168        O  0.63733822  0.10185278  0.69203051    -0.51200
C169        C  0.62087294  0.06799436  0.77945801     0.70800
O170        O  0.62104747  0.07208810  0.73712358    -0.46000
C171        C  0.58106539  0.07739718  0.76444703     0.75500
O172        O  0.63971020  0.12011900  0.79027320    -0.57900
O173        O  0.58817530  0.07900712  0.72432709    -0.48000
O174        O  0.61537854  0.11965894  0.77311383    -0.54300
C175        C  0.62756805  0.10383168  0.66247814     0.85700
O176        O  0.62017304  0.07883189  0.80859442    -0.56200
O177        O  0.59228010  0.08438501  0.79777753    -0.59500
In178      In  0.62115707  0.09666125  0.25160604     1.36900
C179        C  0.63415323  0.12507836  0.19299953     0.78200
O180        O  0.59169021  0.07998490  0.22683863    -0.60300
O181        O  0.59696517  0.09038159  0.29652463    -0.51200
C182        C  0.62273837  0.06673881  0.23362372     0.70800
O183        O  0.62418951  0.07351035  0.27389057    -0.46000
C184        C  0.63495351  0.11052168  0.33537003     0.75500
O185        O  0.61747563  0.11340980  0.19884036    -0.57900
O186        O  0.64181624  0.10347522  0.30930578    -0.48000
O187        O  0.64486906  0.12200331  0.21575256    -0.54300
C188        C  0.58525835  0.08194474  0.26507596     0.85700
O189        O  0.62167327  0.07593079  0.20103306    -0.56200
O190        O  0.62242722  0.11194804  0.31662886    -0.59500
In191      In  0.53707165  0.91093784  0.25741070     1.36900
C192        C  0.56779680  0.94267862  0.23851640     0.78200
O193        O  0.52215545  0.92470646  0.23325930    -0.60300
O194        O  0.51748761  0.91480960  0.30281700    -0.51200
C195        C  0.52323443  0.88315690  0.19537736     0.70800
O196        O  0.53705484  0.88700563  0.21990014    -0.46000
C197        C  0.53839867  0.89686974  0.33830496     0.75500
O198        O  0.55867466  0.93122453  0.20671325    -0.57900
O199        O  0.52358083  0.89368544  0.32008366    -0.48000
O200        O  0.56205872  0.93728422  0.27950970    -0.54300
C201        C  0.51359663  0.92237322  0.27143582     0.85700
O202        O  0.51738794  0.89375877  0.20160064    -0.56200
O203        O  0.55261056  0.90617323  0.31327207    -0.59500
In204      In  0.53661539  0.91318371  0.74670087     1.36900
C205        C  0.52021175  0.88349015  0.80101732     0.78200
O206        O  0.52051769  0.92516501  0.77514454    -0.60300
O207        O  0.52096589  0.92171821  0.70133221    -0.51200
C208        C  0.56558440  0.94468232  0.77567851     0.70800
O209        O  0.56368028  0.93895681  0.73391040    -0.46000
C210        C  0.54019327  0.90105362  0.66303747     0.75500
O211        O  0.51212525  0.89031853  0.78138991    -0.57900
O212        O  0.52512275  0.89783880  0.68024815    -0.48000
O213        O  0.53732397  0.89179261  0.79298926    -0.54300
C214        C  0.51501069  0.92662122  0.73557536     0.85700
O215        O  0.55358616  0.93354018  0.80387147    -0.56200
O216        O  0.55381177  0.90965722  0.69011851    -0.59500
C217        C  0.77379412  0.33787367  0.99678110    -0.01900
C218        C  0.77296348  0.44868140  0.98989733    -0.01900
In219      In  0.08864425  0.62990654  0.26679393     1.36900
C220        C  0.12231389  0.64727226  0.22795407     0.78200
O221        O  0.09687539  0.64917573  0.32924041    -0.60300
O222        O  0.09315359  0.62283456  0.33745134    -0.51200
C223        C  0.05939347  0.63133767  0.24034598     0.70800
O224        O  0.06641130  0.63655993  0.28050554    -0.46000
C225        C  0.07294154  0.59439015  0.25217933     0.75500
O226        O  0.11133022  0.65284047  0.22244806    -0.57900
O227        O  0.07074333  0.60095107  0.28987597    -0.48000
O228        O  0.11610260  0.63340945  0.25317560    -0.54300
C229        C  0.09715906  0.63778504  0.35637513     0.85700
O230        O  0.06856883  0.62755845  0.21242529    -0.56200
O231        O  0.08292467  0.60597213  0.22176599    -0.59500
In232      In  0.08409932  0.62956502  0.77472667     1.36900
C233        C  0.11596084  0.64289829  0.82247642     0.78200
O234        O  0.06980950  0.60386515  0.81703153    -0.60300
O235        O  0.07010244  0.60183126  0.74248340    -0.51200
C236        C  0.05535672  0.63314430  0.79651887     0.70800
O237        O  0.06437810  0.63066004  0.82709512    -0.46000
C238        C  0.09370125  0.63724871  0.68513762     0.75500
O239        O  0.10960285  0.65289640  0.81284547    -0.57900
O240        O  0.09031723  0.62266453  0.70409198    -0.48000
O241        O  0.10631356  0.62689453  0.80732765    -0.54300
C242        C  0.06562719  0.59368305  0.78120515     0.85700
O243        O  0.06218872  0.63578279  0.75588038    -0.56200
O244        O  0.09326803  0.64871081  0.71276903    -0.59500
In245      In  0.90538170  0.53831963  0.75379053     1.36900
C246        C  0.93181800  0.57118308  0.78444783     0.78200
O247        O  0.92319177  0.52798425  0.72743868    -0.60300
O248        O  0.91640159  0.52552137  0.80032393    -0.51200
C249        C  0.87172883  0.51679823  0.79050141     0.70800
O250        O  0.88162192  0.51107406  0.77451473    -0.46000
C251        C  0.89817297  0.53764214  0.66292761     0.75500
O252        O  0.92258589  0.55807880  0.81186028    -0.57900
O253        O  0.90439353  0.52861639  0.68078365    -0.48000
O254        O  0.92608157  0.56813753  0.74283769    -0.54300
C255        C  0.92442882  0.52243162  0.76719726     0.85700
O256        O  0.87891184  0.53384817  0.78776459    -0.56200
O257        O  0.89531959  0.54725021  0.69187345    -0.59500
In258      In  0.90205703  0.53891423  0.24097198     1.36900
C259        C  0.93338351  0.57007263  0.21995152     0.78200
O260        O  0.89594509  0.55031128  0.30650671    -0.60300
O261        O  0.89779896  0.52660061  0.31137694    -0.51200
C262        C  0.87002768  0.52694356  0.19621802     0.70800
O263        O  0.88511620  0.54023546  0.18208806    -0.46000
C264        C  0.91249301  0.51496693  0.22583626     0.75500
O265        O  0.92305094  0.56898949  0.25348504    -0.57900
O266        O  0.91752551  0.52546915  0.26102717    -0.48000
O267        O  0.92676040  0.55599196  0.19453749    -0.54300
C268        C  0.89542036  0.53821417  0.33253112     0.85700
O269        O  0.87100863  0.52076825  0.23508273    -0.56200
O270        O  0.90230322  0.51684670  0.19771797    -0.59500
C271        C  0.21675733  0.66905739  0.01925848    -0.01900
C272        C  0.21740415  0.55684741  0.02988190    -0.01900
In273      In  0.08688523  0.47219148  0.77058279     1.36900
C274        C  0.05791327  0.43883981  0.78771526     0.78200
O275        O  0.07283881  0.48406718  0.81268722    -0.60300
O276        O  0.07351116  0.48586135  0.73828026    -0.51200
C277        C  0.11829570  0.48892168  0.81989937     0.70800
O278        O  0.11041995  0.47221197  0.80917411    -0.46000
C279        C  0.09915966  0.47494996  0.68294675     0.75500
O280        O  0.06727669  0.44969222  0.82044316    -0.57900
O281        O  0.09848780  0.48759527  0.70395640    -0.48000
O282        O  0.06415001  0.44454906  0.74719549    -0.54300
C283        C  0.06889265  0.48975827  0.77679565     0.85700
O284        O  0.10997642  0.49651989  0.80634644    -0.56200
O285        O  0.09459297  0.46111761  0.70773780    -0.59500
In286      In  0.08406438  0.46736851  0.26607013     1.36900
C287        C  0.11709400  0.48249554  0.22330673     0.78200
O288        O  0.07657157  0.48220837  0.21485674    -0.60300
O289        O  0.06891311  0.48102606  0.28674027    -0.51200
C290        C  0.05288853  0.43514988  0.25359525     0.70800
O291        O  0.06274764  0.44446352  0.21935624    -0.46000
C292        C  0.09483677  0.47172001  0.35493860     0.75500
O293        O  0.10641568  0.46533924  0.22429002    -0.57900
O294        O  0.09203061  0.48285414  0.33392944    -0.48000
O295        O  0.11069341  0.49116501  0.24320331    -0.54300
C296        C  0.06911239  0.48679896  0.24621871     0.85700
O297        O  0.06008282  0.44118672  0.29312784    -0.56200
O298        O  0.09257091  0.45836935  0.33008164    -0.59500
In299      In  0.89378958  0.37053297  0.26628651     1.36900
C300        C  0.86431936  0.35091270  0.21209647     0.78200
O301        O  0.88550179  0.37713244  0.33411172    -0.60300
O302        O  0.88377763  0.35146179  0.32798342    -0.51200
C303        C  0.92538241  0.37111817  0.25564877     0.70800
O304        O  0.91784162  0.37433007  0.22255828    -0.46000
C305        C  0.90611719  0.40533279  0.24913887     0.75500
O306        O  0.87953996  0.35226370  0.20314455    -0.57900
O307        O  0.91068675  0.40035954  0.28516949    -0.48000
O308        O  0.86368398  0.35769875  0.25097615    -0.54300
C309        C  0.88211645  0.36264369  0.35393398     0.85700
O310        O  0.91578404  0.36554256  0.29255234    -0.56200
O311        O  0.89513343  0.39258628  0.22255777    -0.59500
In312      In  0.90761384  0.38291989  0.76448848     1.36900
C313        C  0.87427506  0.36977090  0.80386575     0.78200
O314        O  0.91882875  0.40852966  0.80718053    -0.60300
O315        O  0.92486148  0.41071165  0.73386555    -0.51200
C316        C  0.93513615  0.37800173  0.78718195     0.70800
O317        O  0.92869107  0.37558620  0.74643077    -0.46000
C318        C  0.89684328  0.37221133  0.67757284     0.75500
O319        O  0.88273814  0.36130137  0.80582081    -0.57900
O320        O  0.89697966  0.36139937  0.70702695    -0.48000
O321        O  0.88300142  0.38476915  0.78321625    -0.54300
C322        C  0.92627975  0.41879882  0.77231950     0.85700
O323        O  0.92641259  0.38132894  0.81793273    -0.56200
O324        O  0.90219055  0.38800375  0.69290570    -0.59500
C325        C  0.87897151  0.35250333  0.47563556     0.20900
C326        C  0.88221931  0.34528782  0.51595501    -0.39000
C327        C  0.88450372  0.35500842  0.55807613     0.19900
C328        C  0.88371834  0.37071110  0.55932853     0.22500
C329        C  0.88039960  0.37780799  0.51946464    -0.39500
C330        C  0.87801038  0.36810233  0.47778487     0.21300
N331        N  0.87872464  0.34735641  0.43057852    -0.32700
C332        C  0.87789641  0.35997844  0.40436359    -0.10300
C333        C  0.87704516  0.37286443  0.43265476    -0.29100
N334        N  0.88765044  0.37829240  0.60214815    -0.45700
C335        C  0.89089547  0.36741196  0.62885909    -0.05000
C336        C  0.88899099  0.35259979  0.60291323    -0.22300
H337        H  0.88363761  0.33348273  0.51428830     0.19500
H338        H  0.88050676  0.39046489  0.52048326     0.18300
H339        H  0.87765482  0.38517144  0.42157148     0.14500
H340        H  0.89132886  0.34204774  0.61464953     0.14400
H341        H  0.88072182  0.33697846  0.41838800     0.32600
H342        H  0.88850672  0.39044432  0.61236443     0.35300
C343        C  0.00568435  0.40102246  0.27105094     0.20900
C344        C  0.98957918  0.39141386  0.29836654    -0.39000
C345        C  0.97292709  0.38472667  0.27436935     0.19900
C346        C  0.97238146  0.38756488  0.22680417     0.22500
C347        C  0.98848456  0.39715964  0.19949560    -0.39500
C348        C  0.00514439  0.40371490  0.22339569     0.21300
N349        N  0.02308203  0.41058493  0.28668839    -0.32700
C350        C  0.03377622  0.41960161  0.24899091    -0.10300
C351        C  0.02306210  0.41541653  0.20865901    -0.29100
N352        N  0.95507743  0.38176185  0.21343469    -0.45700
C353        C  0.94447573  0.37518679  0.25265777    -0.05000
C354        C  0.95512073  0.37665427  0.29133569    -0.22300
H355        H  0.99001310  0.39003971  0.33602569     0.19500
H356        H  0.98809531  0.40010626  0.16280753     0.18300
H357        H  0.02751849  0.42158944  0.17439120     0.14500
H358        H  0.95069567  0.37372299  0.32766996     0.14400
H359        H  0.02724346  0.41211345  0.32169730     0.32600
H360        H  0.95092552  0.38333849  0.18035046     0.35300
C361        C  0.01287908  0.40453067  0.82345461     0.20900
C362        C  0.99676202  0.39914833  0.84974574    -0.39000
C363        C  0.98008681  0.38874660  0.82556357     0.19900
C364        C  0.97952415  0.38373006  0.77883694     0.22500
C365        C  0.99558048  0.38876961  0.75285081    -0.39500
C366        C  0.01222392  0.39948128  0.77670880     0.21300
N367        N  0.03005749  0.41780069  0.83500841    -0.32700
C368        C  0.04027204  0.42159941  0.79510912    -0.10300
C369        C  0.02970192  0.41007691  0.75842105    -0.29100
N370        N  0.96266002  0.37725612  0.76117537    -0.45700
C371        C  0.95243186  0.37851021  0.79629197    -0.05000
C372        C  0.96272198  0.38520916  0.83741555    -0.22300
H373        H  0.99724067  0.40433289  0.88494998     0.19500
H374        H  0.99520112  0.38621108  0.71536926     0.18300
H375        H  0.03362524  0.41112883  0.72170544     0.14500
H376        H  0.95880730  0.38929591  0.86950451     0.14400
H377        H  0.03399339  0.42540680  0.86623998     0.32600
H378        H  0.95897432  0.37423752  0.72584046     0.35300
C379        C  0.10256140  0.46739858  0.47589341     0.20900
C380        C  0.10174725  0.45806995  0.51684760    -0.39000
C381        C  0.10409775  0.46752085  0.55935951     0.19900
C382        C  0.10713825  0.48499629  0.56088003     0.22500
C383        C  0.10792318  0.49432272  0.51996283    -0.39500
C384        C  0.10544469  0.48481463  0.47751175     0.21300
N385        N  0.09923869  0.46080713  0.43161006    -0.32700
C386        C  0.09980170  0.47402982  0.40496706    -0.10300
C387        C  0.10372400  0.48924895  0.43228578    -0.29100
N388        N  0.10708248  0.49028110  0.60552255    -0.45700
C389        C  0.10375099  0.47601533  0.63263710    -0.05000
C390        C  0.10201395  0.46162782  0.60516805    -0.22300
H391        H  0.09869444  0.44416865  0.51580301     0.19500
H392        H  0.10951220  0.50766869  0.52123684     0.18300
H393        H  0.10434988  0.50153096  0.42092001     0.14500
H394        H  0.09827753  0.44818833  0.61684506     0.14400
H395        H  0.09587748  0.44778650  0.42056069     0.32600
H396        H  0.10797110  0.50235608  0.61666186     0.35300
C397        C  0.18754531  0.52076558  0.11270154     0.20900
C398        C  0.17324513  0.50272353  0.12218369    -0.39000
C399        C  0.16026332  0.50075290  0.15663697     0.19900
C400        C  0.16172988  0.51569014  0.17995013     0.22500
C401        C  0.17621387  0.53354025  0.17137469    -0.39500
C402        C  0.18896290  0.53545296  0.13677273     0.21300
N403        N  0.19942983  0.52651128  0.07607314    -0.32700
C404        C  0.20767859  0.54505138  0.07435786    -0.10300
C405        C  0.20237350  0.55093295  0.11470075    -0.29100
N406        N  0.14687778  0.51071843  0.20704405    -0.45700
C407        C  0.13565538  0.49245236  0.20148848    -0.05000
C408        C  0.14361365  0.48562141  0.17050974    -0.22300
H409        H  0.17159664  0.49122377  0.10186665     0.19500
H410        H  0.17675569  0.54522277  0.18801906     0.18300
H411        H  0.20626617  0.56465075  0.12474501     0.14500
H412        H  0.13761438  0.47174665  0.15784467     0.14400
H413        H  0.20073401  0.51792792  0.05279452     0.32600
H414        H  0.14419146  0.51942297  0.22687751     0.35300
C415        C  0.15847430  0.52207596  0.88142230     0.20900
C416        C  0.17010013  0.53911112  0.90236956    -0.39000
C417        C  0.18373368  0.54022213  0.93159299     0.19900
C418        C  0.18599570  0.52570156  0.93884208     0.22500
C419        C  0.17443792  0.50856051  0.91735608    -0.39500
C420        C  0.16042288  0.50727244  0.88863033     0.21300
N421        N  0.14361222  0.51731703  0.85538205    -0.32700
C422        C  0.13574378  0.49928335  0.84593439    -0.10300
C423        C  0.14591606  0.49248249  0.86575132    -0.29100
N424        N  0.19924316  0.53015526  0.97088122    -0.45700
C425        C  0.20476728  0.54734710  0.98666215    -0.05000
C426        C  0.19582605  0.55419036  0.96037660    -0.22300
H427        H  0.16813477  0.55047736  0.89792982     0.19500
H428        H  0.17572324  0.49691541  0.92418595     0.18300
H429        H  0.14277214  0.47855218  0.86496684     0.14500
H430        H  0.19713501  0.56736658  0.96261521     0.14400
H431        H  0.13876684  0.52576418  0.84580075     0.32600
H432        H  0.20424511  0.52193076  0.98034116     0.35300
C433        C  0.22903053  0.60485749  0.02919269     0.20900
C434        C  0.23910757  0.62374106  0.01882867    -0.39000
C435        C  0.22949843  0.63311993  0.02400395     0.19900
C436        C  0.21130428  0.62423309  0.03795402     0.22500
C437        C  0.20132669  0.60557000  0.04801884    -0.39500
C438        C  0.21087144  0.59637000  0.04317083     0.21300
N439        N  0.23440369  0.59249451  0.02497326    -0.32700
C440        C  0.21943672  0.57592473  0.03618452    -0.10300
C441        C  0.20460754  0.57817964  0.04747430    -0.29100
N442        N  0.20490930  0.63561868  0.03857093    -0.45700
C443        C  0.21897649  0.65230245  0.02527711    -0.05000
C444        C  0.23467144  0.65116634  0.01587515    -0.22300
H445        H  0.25324768  0.63055824  0.00692028     0.19500
H446        H  0.18696546  0.59858745  0.05809629     0.18300
H447        H  0.19057922  0.56756165  0.05503391     0.14500
H448        H  0.24794166  0.66193559  0.00347406     0.14400
H449        H  0.24717358  0.59507878  0.01300775     0.32600
H450        H  0.19148529  0.63207793  0.04704694     0.35300
C451        C  0.92488212  0.48174605  0.23960508     0.20900
C452        C  0.92931157  0.47103594  0.26656592    -0.39000
C453        C  0.92333275  0.45357406  0.24860945     0.19900
C454        C  0.91386238  0.44737047  0.20663321     0.22500
C455        C  0.90965483  0.45815188  0.17938765    -0.39500
C456        C  0.91541077  0.47551074  0.19763745     0.21300
N457        N  0.92632558  0.49748425  0.25286961    -0.32700
C458        C  0.91741702  0.50107564  0.21966794    -0.10300
C459        C  0.91074111  0.48789631  0.18414140    -0.29100
N460        N  0.90746939  0.42957362  0.20044505    -0.45700
C461        C  0.91266360  0.42437006  0.23897499    -0.05000
C462        C  0.92286673  0.43897910  0.26950883    -0.22300
H463        H  0.93571413  0.47546651  0.30069263     0.19500
H464        H  0.90130101  0.45289912  0.14812707     0.18300
H465        H  0.90206615  0.48659284  0.15503375     0.14500
H466        H  0.92789907  0.43862491  0.30398507     0.14400
H467        H  0.93159165  0.50447655  0.28460956     0.32600
H468        H  0.89900263  0.42121102  0.17331390     0.35300
C469        C  0.89266170  0.52936846  0.45509570     0.20900
C470        C  0.89437521  0.52104734  0.49490430    -0.39000
C471        C  0.89359677  0.52858569  0.53804417     0.19900
C472        C  0.89118256  0.54329397  0.54178138     0.22500
C473        C  0.88951301  0.55173925  0.50157793    -0.39500
C474        C  0.89041115  0.54420055  0.45795238     0.21300
N475        N  0.89402148  0.52521328  0.41028561    -0.32700
C476        C  0.89283661  0.53751440  0.38385055    -0.10300
C477        C  0.89046096  0.54959561  0.41219176    -0.29100
N478        N  0.89181630  0.54827784  0.58730665    -0.45700
C479        C  0.89483300  0.53667635  0.61204894    -0.05000
C480        C  0.89593915  0.52424257  0.58248423    -0.22300
H481        H  0.89665382  0.50978435  0.49241104     0.19500
H482        H  0.88811045  0.56354284  0.50402422     0.18300
H483        H  0.88958449  0.56109977  0.40097581     0.14500
H484        H  0.89871047  0.51376494  0.59217267     0.14400
H485        H  0.89631938  0.51498828  0.39843271     0.32600
H486        H  0.89094985  0.55922034  0.60049036     0.35300
C487        C  0.93844964  0.46385218  0.80156400     0.20900
C488        C  0.93581940  0.47627329  0.82762679    -0.39000
C489        C  0.93785787  0.49112876  0.80267666     0.19900
C490        C  0.94244333  0.49359547  0.75529997     0.22500
C491        C  0.94537863  0.48131521  0.72936391    -0.39500
C492        C  0.94305243  0.46628392  0.75419540     0.21300
N493        N  0.93365299  0.44703759  0.81492409    -0.32700
C494        C  0.93480905  0.43857615  0.77571714    -0.10300
C495        C  0.94101467  0.45023439  0.73730879    -0.29100
N496        N  0.94000091  0.50658859  0.73769753    -0.45700
C497        C  0.93345190  0.51208214  0.77381707    -0.05000
C498        C  0.93235848  0.50309922  0.81515273    -0.22300
H499        H  0.93079549  0.47362227  0.86353850     0.19500
H500        H  0.94753231  0.48244097  0.69166199     0.18300
H501        H  0.94172531  0.44673825  0.70093114     0.14500
H502        H  0.92613010  0.50356026  0.84816826     0.14400
H503        H  0.92801610  0.44106899  0.84737998     0.32600
H504        H  0.94076856  0.51002761  0.70230550     0.35300
C505        C  0.05229025  0.54784688  0.76034961     0.20900
C506        C  0.05213616  0.53420292  0.73251283    -0.39000
C507        C  0.05357101  0.52097144  0.75680953     0.19900
C508        C  0.05495035  0.52119963  0.80533081     0.22500
C509        C  0.05496659  0.53480648  0.83327041    -0.39500
C510        C  0.05363800  0.54814222  0.80890342     0.21300
N511        N  0.05445087  0.56351187  0.74498287    -0.32700
C512        C  0.05755566  0.57399701  0.78379058    -0.10300
C513        C  0.05672843  0.56476230  0.82448268    -0.29100
N514        N  0.05905615  0.50884442  0.81916831    -0.45700
C515        C  0.06058357  0.50099067  0.77909989    -0.05000
C516        C  0.05695658  0.50797035  0.73962601    -0.22300
H517        H  0.05237824  0.53468339  0.69447550     0.19500
H518        H  0.05730926  0.53574860  0.87079604     0.18300
H519        H  0.06025020  0.57029611  0.85982300     0.14500
H520        H  0.05848202  0.50524512  0.70308946     0.14400
H521        H  0.05572526  0.56754746  0.70996653     0.32600
H522        H  0.06229582  0.50707824  0.85320663     0.35300
C523        C  0.15342185  0.64567802  0.88626260     0.20900
C524        C  0.16312512  0.63858135  0.90766374    -0.39000
C525        C  0.17948178  0.65126012  0.93033865     0.19900
C526        C  0.18578097  0.66961916  0.93162147     0.22500
C527        C  0.17597897  0.67678585  0.91032042    -0.39500
C528        C  0.15947262  0.66405049  0.88758265     0.21300
N529        N  0.13742772  0.63627131  0.86322458    -0.32700
C530        C  0.13295239  0.64853126  0.84950098    -0.10300
C531        C  0.14639350  0.66612116  0.86422717    -0.29100
N532        N  0.20096964  0.67850702  0.95844258    -0.45700
C533        C  0.20423417  0.66573761  0.97611107    -0.05000
C534        C  0.19112309  0.64856398  0.95758508    -0.22300
H535        H  0.15806649  0.62412644  0.90755855     0.19500
H536        H  0.18064702  0.69114139  0.91222897     0.18300
H537        H  0.14660864  0.67865606  0.85854484     0.14500
H538        H  0.18924903  0.63542767  0.96507920     0.14400
H539        H  0.12988744  0.62220114  0.85735004     0.32600
H540        H  0.20811300  0.69244837  0.96593419     0.35300
C541        C  0.01029351  0.62597696  0.79016899     0.20900
C542        C  0.99467992  0.62257184  0.76519412    -0.39000
C543        C  0.97762371  0.61050733  0.78622464     0.19900
C544        C  0.97618614  0.60244352  0.82913704     0.22500
C545        C  0.99182341  0.60610269  0.85450273    -0.39500
C546        C  0.00888946  0.61815992  0.83343162     0.21300
N547        N  0.02763668  0.63400393  0.77357493    -0.32700
C548        C  0.03736285  0.63122866  0.80628529    -0.10300
C549        C  0.02618744  0.62170753  0.84453599    -0.29100
N550        N  0.95878820  0.58875790  0.83680371    -0.45700
C551        C  0.94915748  0.58780070  0.79811284    -0.05000
C552        C  0.96036917  0.60149713  0.76646592    -0.22300
H553        H  0.99569897  0.62762271  0.72995321     0.19500
H554        H  0.99076803  0.59883417  0.88629434     0.18300
H555        H  0.02968693  0.61607609  0.87353516     0.14500
H556        H  0.95700561  0.60290827  0.73082601     0.14400
H557        H  0.03213842  0.63941079  0.74002428     0.32600
H558        H  0.95433859  0.57918299  0.86368399     0.35300
C559        C  0.16307167  0.66979044  0.15682569     0.20900
C560        C  0.17379095  0.67970112  0.11796052    -0.39000
C561        C  0.18779136  0.67647510  0.10432203     0.19900
C562        C  0.19096341  0.66439052  0.12749991     0.22500
C563        C  0.18057454  0.65481684  0.16709964    -0.39500
C564        C  0.16649471  0.65792083  0.18060368     0.21300
N565        N  0.14738918  0.66842883  0.17247425    -0.32700
C566        C  0.14073340  0.65547915  0.20616072    -0.10300
C567        C  0.15243089  0.64884918  0.21262928    -0.29100
N568        N  0.20295312  0.66156847  0.10322493    -0.45700
C569        C  0.20702732  0.67135035  0.06287145    -0.05000
C570        C  0.19848683  0.68163728  0.06429855    -0.22300
H571        H  0.17062860  0.68829341  0.09774457     0.19500
H572        H  0.18241223  0.64467309  0.18401032     0.18300
H573        H  0.15015312  0.63779489  0.23511905     0.14500
H574        H  0.19853846  0.69057274  0.03810769     0.14400
H575        H  0.14098051  0.67494443  0.15887205     0.32600
H576        H  0.20724241  0.65271202  0.11303314     0.35300
C577        C  0.98090032  0.59869100  0.19222367     0.20900
C578        C  0.99739950  0.60188655  0.17177205    -0.39000
C579        C  0.01351478  0.61390359  0.19629796     0.19900
C580        C  0.01328679  0.62203322  0.23846108     0.22500
C581        C  0.99674821  0.61896127  0.25879199    -0.39500
C582        C  0.98057396  0.60701527  0.23396848     0.21300
N583        N  0.96379217  0.58576234  0.17949110    -0.32700
C584        C  0.95238210  0.58558886  0.21347721    -0.10300
C585        C  0.96233544  0.59896062  0.24757149    -0.29100
N586        N  0.03011925  0.63070150  0.25806594    -0.45700
C587        C  0.04109634  0.62805333  0.22810231    -0.05000
C588        C  0.03122742  0.61783620  0.18897235    -0.22300
H589        H  0.99758482  0.59462785  0.14053529     0.19500
H590        H  0.99638754  0.62452245  0.29291182     0.18300
H591        H  0.95717976  0.60096832  0.28066556     0.14500
H592        H  0.03593469  0.61241287  0.16130951     0.14400
H593        H  0.96028504  0.57639599  0.15186897     0.32600
H594        H  0.03356781  0.63678208  0.29139857     0.35300
C595        C  0.10105081  0.63426109  0.56269941     0.20900
C596        C  0.10325561  0.62631741  0.52184445    -0.39000
C597        C  0.10343925  0.63457720  0.47972134     0.19900
C598        C  0.10145179  0.64956910  0.47805982     0.22500
C599        C  0.09924576  0.65755546  0.51917142    -0.39500
C600        C  0.09922307  0.64935338  0.56160970     0.21300
N601        N  0.09969305  0.62842357  0.60682291    -0.32700
C602        C  0.09719197  0.63995520  0.63436381    -0.10300
C603        C  0.09676815  0.65320421  0.60753506    -0.29100
N604        N  0.10028615  0.65365523  0.43319555    -0.45700
C605        C  0.10127062  0.64094700  0.40664442    -0.05000
C606        C  0.10353968  0.62906002  0.43435466    -0.22300
H607        H  0.10420539  0.61423904  0.52270158     0.19500
H608        H  0.09721016  0.66897384  0.51813349     0.18300
H609        H  0.09437334  0.66378584  0.61977952     0.14500
H610        H  0.10380965  0.61712206  0.42294052     0.14400
H611        H  0.10010999  0.61706043  0.61749873     0.32600
H612        H  0.09766239  0.66356176  0.42160776     0.35300
C613        C  0.06220144  0.55029016  0.21536633     0.20900
C614        C  0.06529224  0.53831081  0.18844276    -0.39000
C615        C  0.06120299  0.52217576  0.21073850     0.19900
C616        C  0.05426480  0.51820258  0.25620613     0.22500
C617        C  0.05094431  0.53004842  0.28284211    -0.39500
C618        C  0.05529568  0.54627491  0.26084666     0.21300
N619        N  0.06806179  0.56769635  0.20534754    -0.32700
C620        C  0.06516209  0.57483772  0.24490784    -0.10300
C621        C  0.05689621  0.56183048  0.28001384    -0.29100
N622        N  0.05457867  0.50382999  0.27249248    -0.45700
C623        C  0.06211748  0.49883841  0.23775279    -0.05000
C624        C  0.06605603  0.50965917  0.19815158    -0.22300
H625        H  0.07190215  0.54200977  0.15425755     0.19500
H626        H  0.04681130  0.52753022  0.31944497     0.18300
H627        H  0.05422630  0.56397793  0.31612466     0.14500
H628        H  0.07350694  0.50978666  0.16687860     0.14400
H629        H  0.07507150  0.57470453  0.17500794     0.32600
H630        H  0.05163629  0.49892909  0.30686926     0.35300
C631        C  0.82595745  0.49780245  0.14332118     0.20900
C632        C  0.80775385  0.48267173  0.13955389    -0.39000
C633        C  0.80131320  0.47663279  0.09328487     0.19900
C634        C  0.81243174  0.48488476  0.05471682     0.22500
C635        C  0.83028166  0.49998883  0.05838714    -0.39500
C636        C  0.83649614  0.50625319  0.10387942     0.21300
N637        N  0.83619102  0.50505297  0.18246737    -0.32700
C638        C  0.85319240  0.51823807  0.16733938    -0.10300
C639        C  0.85370170  0.51951590  0.11861762    -0.29100
N640        N  0.80412000  0.47620195  0.01498570    -0.45700
C641        C  0.78697116  0.46228682  0.02659927    -0.05000
C642        C  0.78483627  0.46214739  0.07594113    -0.22300
H643        H  0.79947380  0.47581698  0.17020295     0.19500
H644        H  0.83894838  0.50613062  0.02779584     0.18300
H645        H  0.86561722  0.52775725  0.09663387     0.14500
H646        H  0.77299452  0.45248119  0.09631740     0.14400
H647        H  0.83224064  0.50054599  0.21693137     0.32600
H648        H  0.81056388  0.47963298  0.98219524     0.35300
C649        C  0.82706516  0.49418485  0.84442305     0.20900
C650        C  0.81164876  0.49274087  0.86734607    -0.39000
C651        C  0.79960312  0.47593467  0.88874155     0.19900
C652        C  0.80296235  0.46181693  0.88823574     0.22500
C653        C  0.81814068  0.46310860  0.86442290    -0.39500
C654        C  0.82997963  0.47977500  0.84244172     0.21300
N655        N  0.84141205  0.50922871  0.82549288    -0.32700
C656        C  0.85345799  0.50429313  0.81107909    -0.10300
C657        C  0.84672601  0.48598197  0.82068352    -0.29100
N658        N  0.79214780  0.44907396  0.91964303    -0.45700
C659        C  0.78176257  0.45500051  0.94097278    -0.05000
C660        C  0.78562698  0.47146538  0.92089688    -0.22300
H661        H  0.80980314  0.50425116  0.87090809     0.19500
H662        H  0.82119552  0.45236435  0.86567887     0.18300
H663        H  0.85359292  0.47848494  0.81466644     0.14500
H664        H  0.78115462  0.48043618  0.93403084     0.14400
H665        H  0.84315490  0.52217191  0.82374999     0.32600
H666        H  0.79364863  0.43830421  0.92993560     0.35300
C667        C  0.77237615  0.40726317  0.02237580     0.20900
C668        C  0.77872515  0.39722268  0.04541091    -0.39000
C669        C  0.77369058  0.38023641  0.02521509     0.19900
C670        C  0.76316995  0.37373877  0.98507005     0.22500
C671        C  0.75680034  0.38377363  0.96200432    -0.39500
C672        C  0.76175255  0.40073257  0.98244325     0.21300
N673        N  0.77680566  0.42446020  0.03202382    -0.32700
C674        C  0.76902406  0.42921384  0.99792388    -0.10300
C675        C  0.75929093  0.41443211  0.96673528    -0.29100
N676        N  0.76135527  0.35783651  0.97116304    -0.45700
C677        C  0.77089557  0.35407487  0.00239144    -0.05000
C678        C  0.77867156  0.36785680  0.03688228    -0.22300
H679        H  0.78751859  0.40254913  0.07588793     0.19500
H680        H  0.74907957  0.37900683  0.92965949     0.18300
H681        H  0.75285018  0.41423654  0.93412300     0.14500
H682        H  0.78747753  0.36916442  0.06562535     0.14400
H683        H  0.78567617  0.43265282  0.05865596     0.32600
H684        H  0.75466503  0.35032930  0.94099847     0.35300
C685        C  0.82328246  0.33868239  0.15022976     0.20900
C686        C  0.80515138  0.33487104  0.14499531    -0.39000
C687        C  0.80044724  0.33749444  0.09971277     0.19900
C688        C  0.81313833  0.34405388  0.06345142     0.22500
C689        C  0.83112482  0.34773987  0.06849386    -0.39500
C690        C  0.83558692  0.34446562  0.11298403     0.21300
N691        N  0.83160317  0.33861751  0.19011261    -0.32700
C692        C  0.84921771  0.34414123  0.17797928    -0.10300
C693        C  0.85210684  0.34764143  0.12993989    -0.29100
N694        N  0.80567355  0.34573633  0.02425997    -0.45700
C695        C  0.78762138  0.33936156  0.03395206    -0.05000
C696        C  0.78400591  0.33449332  0.08153749    -0.22300
H697        H  0.79547483  0.33027558  0.17403642     0.19500
H698        H  0.84095219  0.35282859  0.03974943     0.18300
H699        H  0.86504327  0.35359879  0.11102138     0.14500
H700        H  0.77103384  0.32912940  0.09995506     0.14400
H701        H  0.82600608  0.33614696  0.22402372     0.32600
H702        H  0.81284713  0.35110004  0.99286694     0.35300
C703        C  0.82967841  0.34593352  0.85824591     0.20900
C704        C  0.81500421  0.33199747  0.88379985    -0.39000
C705        C  0.80168834  0.33573776  0.90048066     0.19900
C706        C  0.80308289  0.35227083  0.89318946     0.22500
C707        C  0.81758444  0.36610708  0.86676346    -0.39500
C708        C  0.83075705  0.36226174  0.84949586     0.21300
N709        N  0.84490104  0.34635679  0.84269694    -0.32700
C710        C  0.85574139  0.36305548  0.82370130    -0.10300
C711        C  0.84729092  0.37329434  0.82683603    -0.29100
N712        N  0.79132027  0.35406763  0.92149026    -0.45700
C713        C  0.78246517  0.33871285  0.94810672    -0.05000
C714        C  0.78815325  0.32665622  0.93382175    -0.22300
H715        H  0.81462040  0.31960437  0.89276447     0.19500
H716        H  0.81918655  0.37936976  0.86274651     0.18300
H717        H  0.85287848  0.38723425  0.81591148     0.14500
H718        H  0.78562467  0.31455049  0.95156125     0.14400
H719        H  0.84795381  0.33611804  0.84595396     0.32600
H720        H  0.79145047  0.36618939  0.92655929     0.35300
C721        C  0.54911934  0.89416385  0.45724393     0.20900
C722        C  0.56019382  0.90063391  0.49765877    -0.39000
C723        C  0.55075051  0.89651578  0.54099237     0.19900
C724        C  0.53175067  0.88669721  0.54341905     0.22500
C725        C  0.52074365  0.88029179  0.50327456    -0.39500
C726        C  0.53012843  0.88437623  0.46025788     0.21300
N727        N  0.55458420  0.89834901  0.41216732    -0.32700
C728        C  0.53895677  0.89143127  0.38669755    -0.10300
C729        C  0.52345326  0.88237098  0.41543874    -0.29100
N730        N  0.52595538  0.88618494  0.58766645    -0.45700
C731        C  0.54123177  0.89581573  0.61408650    -0.05000
C732        C  0.55708143  0.90239343  0.58633629    -0.22300
H733        H  0.57501017  0.90908295  0.49540607     0.19500
H734        H  0.50591963  0.87349459  0.50532965     0.18300
H735        H  0.50927029  0.87679238  0.40553089     0.14500
H736        H  0.57117069  0.91141401  0.59711418     0.14400
H737        H  0.56803079  0.90684745  0.40008134     0.32600
H738        H  0.51233826  0.88059925  0.59876310     0.35300
C739        C  0.60170144  0.98974778  0.24621613     0.20900
C740        C  0.61163510  0.00616221  0.27137674    -0.39000
C741        C  0.61598053  0.02196869  0.24698478     0.19900
C742        C  0.61079712  0.02157904  0.20085373     0.22500
C743        C  0.60095756  0.00509106  0.17540458    -0.39500
C744        C  0.59665251  0.98919219  0.19985561     0.21300
N745        N  0.59344519  0.97290563  0.26412952    -0.32700
C746        C  0.58289590  0.96143407  0.22930478    -0.10300
C747        C  0.58483906  0.97104361  0.18825744    -0.29100
N748        N  0.61411786  0.03812064  0.18829719    -0.45700
C749        C  0.62123710  0.04895130  0.22697824    -0.05000
C750        C  0.62285395  0.03938782  0.26385746    -0.22300
H751        H  0.61461746  0.00648540  0.30838290     0.19500
H752        H  0.59592650  0.00455241  0.14031084     0.18300
H753        H  0.57690892  0.96573024  0.15635830     0.14500
H754        H  0.62673960  0.04405776  0.29976124     0.14400
H755        H  0.59357516  0.96959086  0.29926519     0.32600
H756        H  0.61021376  0.04136590  0.15702492     0.35300
C757        C  0.60044766  0.99163296  0.77724124     0.20900
C758        C  0.61286970  0.00801251  0.75503304    -0.39000
C759        C  0.61598047  0.02394463  0.77764391     0.19900
C760        C  0.60736129  0.02372382  0.81945900     0.22500
C761        C  0.59494743  0.00723509  0.84201665    -0.39500
C762        C  0.59185769  0.99119352  0.81930255     0.21300
N763        N  0.59319659  0.97482233  0.75877510    -0.32700
C764        C  0.57979195  0.96345140  0.78890932    -0.10300
C765        C  0.57871887  0.97311262  0.82759754    -0.29100
N766        N  0.61008256  0.04039155  0.82893191    -0.45700
C767        C  0.62011635  0.05106407  0.79229197    -0.05000
C768        C  0.62435532  0.04132947  0.76035499    -0.22300
H769        H  0.61861694  0.00826729  0.72067255     0.19500
H770        H  0.58725163  0.00684994  0.87302986     0.18300
H771        H  0.56838386  0.96790793  0.85514331     0.14500
H772        H  0.63059983  0.04573391  0.72593972     0.14400
H773        H  0.59610322  0.97149252  0.72561899     0.32600
H774        H  0.60360672  0.04366574  0.85533517     0.35300
C775        C  0.64471569  0.11102340  0.45677926     0.20900
C776        C  0.64855279  0.10442852  0.49738176    -0.39000
C777        C  0.64194663  0.10744542  0.54005751     0.19900
C778        C  0.63201665  0.11607213  0.54174533     0.22500
C779        C  0.62821655  0.12264464  0.50138761    -0.39500
C780        C  0.63500072  0.11986152  0.45903776     0.21300
N781        N  0.64768329  0.10820221  0.41166034    -0.32700
C782        C  0.63957610  0.11508990  0.38527137    -0.10300
C783        C  0.63179206  0.12270832  0.41366332    -0.29100
N784        N  0.62609948  0.11615848  0.58561994    -0.45700
C785        C  0.63246455  0.10777602  0.61249578    -0.05000
C786        C  0.64248693  0.10215586  0.58546675    -0.22300
H787        H  0.65562163  0.09699256  0.49569226     0.19500
H788        H  0.61997042  0.12887899  0.50267005     0.18300
H789        H  0.62328346  0.12792357  0.40265901     0.14500
H790        H  0.64855851  0.09451147  0.59703981     0.14400
H791        H  0.65332711  0.10058699  0.39968718     0.32600
H792        H  0.61789602  0.12130286  0.59654326     0.35300
C793        C  0.70467882  0.26227137  0.00564204     0.20900
C794        C  0.72396714  0.27068246  0.00474091    -0.39000
C795        C  0.73410112  0.28988331  0.00432107     0.19900
C796        C  0.72568941  0.29992935  0.00497959     0.22500
C797        C  0.70639621  0.29152456  0.00603415    -0.39500
C798        C  0.69626987  0.27231730  0.00632097     0.21300
N799        N  0.69204850  0.24426989  0.00496989    -0.32700
C800        C  0.67519137  0.24250686  0.00469571    -0.10300
C801        C  0.67752599  0.25999710  0.00613679    -0.29100
N802        N  0.73832939  0.31791202  0.00375938    -0.45700
C803        C  0.75517818  0.31960962  0.00143225    -0.05000
C804        C  0.75285693  0.30217916  0.00263208    -0.22300
H805        H  0.73060804  0.26283482  0.00382147     0.19500
H806        H  0.69974707  0.29936665  0.00615363     0.18300
H807        H  0.66701073  0.26346134  0.00585971     0.14500
H808        H  0.76339938  0.29878028  0.00296944     0.14400
H809        H  0.69502540  0.23395381  0.00516155     0.32600
H810        H  0.73534228  0.32824320  0.00421273     0.35300
C811        C  0.61637906  0.22678321  0.03346101     0.20900
C812        C  0.60111679  0.22294253  0.06146212    -0.39000
C813        C  0.58859046  0.22682738  0.04146891     0.19900
C814        C  0.59101114  0.23405058  0.99705298     0.22500
C815        C  0.60647763  0.23812277  0.96916031    -0.39500
C816        C  0.61909102  0.23423144  0.98924166     0.21300
N817        N  0.62937895  0.22295499  0.04323971    -0.32700
C818        C  0.64055732  0.22764695  0.00472046    -0.10300
C819        C  0.63479675  0.23537274  0.97090737    -0.29100
N820        N  0.57622974  0.23489527  0.98471781    -0.45700
C821        C  0.56393620  0.22755380  0.02089602    -0.05000
C822        C  0.57169864  0.22304196  0.05760453    -0.22300
H823        H  0.59876122  0.21665143  0.09558936     0.19500
H824        H  0.60821485  0.24329226  0.93380829     0.18300
H825        H  0.64078157  0.24029737  0.93650492     0.14500
H826        H  0.56545878  0.21680794  0.09088580     0.14400
H827        H  0.63024360  0.21716041  0.07437718     0.32600
H828        H  0.57413771  0.23914429  0.95241397     0.35300
C829        C  0.63662909  0.15765063  0.11244149     0.20900
C830        C  0.62969394  0.16390144  0.07811813    -0.39000
C831        C  0.64057659  0.18237446  0.06728867     0.19900
C832        C  0.65716604  0.19402812  0.08883385     0.22500
C833        C  0.66414179  0.18771782  0.12374219    -0.39500
C834        C  0.65322849  0.16897471  0.13450428     0.21300
N835        N  0.62848688  0.14068600  0.12921040    -0.32700
C836        C  0.63983619  0.14087245  0.16231774    -0.10300
C837        C  0.65555744  0.15829337  0.16662770    -0.29100
N838        N  0.66510698  0.21089806  0.07008675    -0.45700
C839        C  0.65346830  0.20973107  0.03589126    -0.05000
C840        C  0.63795543  0.19211518  0.03411766    -0.22300
H841        H  0.61676721  0.15494872  0.06072097     0.19500
H842        H  0.67713153  0.19664711  0.14084289     0.18300
H843        H  0.66666669  0.16272343  0.19135624     0.14500
H844        H  0.62656349  0.18694465  0.00995611     0.14400
H845        H  0.61564433  0.12967449  0.11956313     0.32600
H846        H  0.67780010  0.22219514  0.07925180     0.35300
C847        C  0.65990562  0.19630438  0.90758133     0.20900
C848        C  0.66515370  0.18403330  0.89208662    -0.39000
C849        C  0.65316227  0.17038347  0.86064203     0.19900
C850        C  0.63708909  0.16902319  0.84589475     0.22500
C851        C  0.63180006  0.18125671  0.86154884    -0.39500
C852        C  0.64387041  0.19495620  0.89296869     0.21300
N853        N  0.66747912  0.20850698  0.94277557    -0.32700
C854        C  0.65615173  0.21497312  0.95212568    -0.10300
C855        C  0.64134600  0.20686432  0.92048920    -0.29100
N856        N  0.62739148  0.15407585  0.81885818    -0.45700
C857        C  0.63734251  0.14584165  0.81636772    -0.05000
C858        C  0.65354726  0.15564706  0.84190719    -0.22300
H859        H  0.67724900  0.18453568  0.90541896     0.19500
H860        H  0.61878431  0.17964856  0.85191338     0.18300
H861        H  0.62890800  0.20730342  0.92145542     0.14500
H862        H  0.66383555  0.15209078  0.84752967     0.14400
H863        H  0.67827168  0.21013341  0.96327596     0.32600
H864        H  0.61449465  0.14943092  0.80422361     0.35300
C865        C  0.47643543  0.92752401  0.30865020     0.20900
C866        C  0.46163998  0.92447638  0.33765911    -0.39000
C867        C  0.44873169  0.92771846  0.31707200     0.19900
C868        C  0.45051944  0.93359353  0.27114818     0.22500
C869        C  0.46521870  0.93651097  0.24213155    -0.39500
C870        C  0.47809323  0.93328051  0.26265695     0.21300
N871        N  0.48958094  0.92388092  0.31840294    -0.32700
C872        C  0.49953683  0.92720045  0.27823500    -0.10300
C873        C  0.49290277  0.93324048  0.24280528    -0.29100
N874        N  0.43558922  0.93385069  0.25814584    -0.45700
C875        C  0.42401595  0.92778174  0.29559017    -0.05000
C876        C  0.43180598  0.92403301  0.33334767    -0.22300
H877        H  0.45987694  0.91918344  0.37288923     0.19500
H878        H  0.46612728  0.94025502  0.20558464     0.18300
H879        H  0.49753661  0.93605961  0.20660206     0.14500
H880        H  0.42531808  0.91790290  0.36653463     0.14400
H881        H  0.49106904  0.91850990  0.34958430     0.32600
H882        H  0.43278945  0.93649264  0.22452301     0.35300
C883        C  0.33410068  0.87846317  0.55796073     0.20900
C884        C  0.32784198  0.88298695  0.51790755    -0.39000
C885        C  0.33332510  0.87937239  0.47430772     0.19900
C886        C  0.34410421  0.87166526  0.47101900     0.22500
C887        C  0.35016576  0.86695984  0.51089079    -0.39500
C888        C  0.34484943  0.87073064  0.55429517     0.21300
N889        N  0.33380187  0.88373776  0.60263837    -0.32700
C890        C  0.34478463  0.87972381  0.62710054    -0.10300
C891        C  0.35156000  0.87124234  0.59832283    -0.29100
N892        N  0.35026325  0.87265019  0.42686215    -0.45700
C893        C  0.34370331  0.88132184  0.40181275    -0.05000
C894        C  0.33269739  0.88535968  0.42990466    -0.22300
H895        H  0.32061519  0.89025349  0.52053645     0.19500
H896        H  0.35971575  0.86224014  0.50833710     0.18300
H897        H  0.36184912  0.86799073  0.60716417     0.14500
H898        H  0.32700896  0.89359566  0.42058395     0.14400
H899        H  0.32826679  0.89146397  0.61450009     0.32600
H900        H  0.35992022  0.86935527  0.41560705     0.35300
C901        C  0.45338694  0.93920165  0.74635693     0.20900
C902        C  0.46858941  0.94259371  0.77282501    -0.39000
C903        C  0.48147838  0.93985100  0.74934865     0.19900
C904        C  0.47956730  0.93438081  0.70264859     0.22500
C905        C  0.46441415  0.93116504  0.67588523    -0.39500
C906        C  0.45134141  0.93368845  0.69964229     0.21300
N907        N  0.43785258  0.93755556  0.76330171    -0.32700
C908        C  0.42567872  0.93060427  0.72762908    -0.10300
C909        C  0.43367488  0.92841359  0.68691190    -0.29100
N910        N  0.49227506  0.93021282  0.69067589    -0.45700
C911        C  0.50203375  0.93277148  0.73029177    -0.05000
C912        C  0.49587700  0.93899443  0.76736864    -0.22300
H913        H  0.46954475  0.94568083  0.81009358     0.19500
H914        H  0.46223952  0.92570385  0.64042837     0.18300
H915        H  0.42684950  0.92178213  0.65440341     0.14500
H916        H  0.50028164  0.94104676  0.80363532     0.14400
H917        H  0.43512528  0.93926106  0.79831427     0.32600
H918        H  0.49325233  0.92453574  0.65884350     0.35300
C919        C  0.50760364  0.06434529  0.80359982     0.20900
C920        C  0.52306762  0.06745152  0.82832769    -0.39000
C921        C  0.53588534  0.06535437  0.80229549     0.19900
C922        C  0.53346021  0.06042002  0.75512639     0.22500
C923        C  0.51783143  0.05703370  0.73054077    -0.39500
C924        C  0.50506379  0.05929686  0.75650297     0.21300
N925        N  0.49539463  0.06878135  0.81806561    -0.32700
C926        C  0.48530487  0.06693402  0.77976723    -0.10300
C927        C  0.49059435  0.06063740  0.74094166    -0.29100
N928        N  0.54899324  0.06256462  0.73637987    -0.45700
C929        C  0.56134147  0.06911106  0.77174947    -0.05000
C930        C  0.55360213  0.07067741  0.81356191    -0.22300
H931        H  0.52569182  0.07267182  0.86406169     0.19500
H932        H  0.51650390  0.05442909  0.69301231     0.18300
H933        H  0.48594570  0.05931170  0.70505859     0.14500
H934        H  0.56060041  0.07690617  0.84620744     0.14400
H935        H  0.49520548  0.07452530  0.85055590     0.32600
H936        H  0.55153926  0.06134890  0.70088384     0.35300
C937        C  0.49266648  0.16455304  0.88724661     0.20900
C938        C  0.49345053  0.17885086  0.91398580    -0.39000
C939        C  0.51100703  0.19238186  0.92981713     0.19900
C940        C  0.52652290  0.19166119  0.92006683     0.22500
C941        C  0.52576634  0.17743190  0.89329705    -0.39500
C942        C  0.50831676  0.16402060  0.87727272     0.21300
N943        N  0.47761323  0.14959574  0.86986844    -0.32700
C944        C  0.48385929  0.13959241  0.84850902    -0.10300
C945        C  0.50290535  0.14818578  0.85248289    -0.29100
N946        N  0.54086232  0.20425384  0.94534474    -0.45700
C947        C  0.53463651  0.21316054  0.97259614    -0.05000
C948        C  0.51598485  0.20615845  0.96250498    -0.22300
H949        H  0.48119835  0.17900561  0.92359422     0.19500
H950        H  0.53778503  0.17643834  0.88716670     0.18300
H951        H  0.51162453  0.14335901  0.83932119     0.14500
H952        H  0.50640227  0.20849246  0.98172933     0.14400
H953        H  0.46401185  0.14639139  0.87241593     0.32600
H954        H  0.55330568  0.20473949  0.94811490     0.35300
C955        C  0.39028698  0.01271478  0.78057572     0.20900
C956        C  0.38013282  0.99703299  0.75255165    -0.39000
C957        C  0.37674464  0.98061678  0.77186168     0.19900
C958        C  0.38299257  0.97981641  0.81588942     0.22500
C959        C  0.39323141  0.99554635  0.84394087    -0.39500
C960        C  0.39660860  0.01202035  0.82460562     0.21300
N961        N  0.39746354  0.03008381  0.76717811    -0.32700
C962        C  0.40869332  0.04066969  0.80239927    -0.10300
C963        C  0.40824556  0.02985704  0.83930383    -0.29100
N964        N  0.37974545  0.96295619  0.82388770    -0.45700
C965        C  0.37157678  0.95302475  0.78446538    -0.05000
C966        C  0.36935262  0.96357161  0.75144862    -0.22300
H967        H  0.37608192  0.99772496  0.71709993     0.19500
H968        H  0.39902663  0.99513923  0.87720592     0.18300
H969        H  0.41696550  0.03434199  0.86998333     0.14500
H970        H  0.36435655  0.95969786  0.71584255     0.14400
H971        H  0.39626262  0.03441986  0.73401276     0.32600
H972        H  0.38408250  0.95884919  0.85283618     0.35300
C973        C  0.49973327  0.15705990  0.13978968     0.20900
C974        C  0.51284099  0.16377155  0.10372390    -0.39000
C975        C  0.51959555  0.18182778  0.09110790     0.19900
C976        C  0.51414037  0.19275226  0.11291760     0.22500
C977        C  0.50099876  0.18600043  0.14971428    -0.39500
C978        C  0.49388407  0.16761811  0.16204205     0.21300
N979        N  0.49098590  0.14012624  0.15690626    -0.32700
C980        C  0.47926362  0.13956230  0.19036681    -0.10300
C981        C  0.48067513  0.15650648  0.19488224    -0.29100
N982        N  0.52231670  0.20931505  0.09230352    -0.45700
C983        C  0.53283350  0.20866519  0.05671201    -0.05000
C984        C  0.53136609  0.19164931  0.05557890    -0.22300
H985        H  0.51715246  0.15537118  0.08590047     0.19500
H986        H  0.49636231  0.19427009  0.16669993     0.18300
H987        H  0.47332819  0.16025876  0.21933118     0.14500
H988        H  0.53779381  0.18693662  0.03079652     0.14400
H989        H  0.49303446  0.12957367  0.14670599     0.32600
H990        H  0.52041768  0.22004861  0.10125817     0.35300
C991        C  0.39024326  0.01558582  0.27986757     0.20900
C992        C  0.38147139  0.99959456  0.30652872    -0.39000
C993        C  0.37623295  0.98332829  0.28208675     0.19900
C994        C  0.37948566  0.98290148  0.23443998     0.22500
C995        C  0.38816888  0.99898471  0.20748991    -0.39500
C996        C  0.39339909  0.01537135  0.23206554     0.21300
N997        N  0.39897737  0.03274457  0.29669996    -0.32700
C998        C  0.40793442  0.04376457  0.25982004    -0.10300
C999        C  0.40450088  0.03343247  0.21850053    -0.29100
N1000       N  0.37544939  0.96604036  0.22112159    -0.45700
C1001       C  0.36977122  0.95576801  0.26070941    -0.05000
C1002       C  0.36987656  0.96610215  0.29916848    -0.22300
H1003       H  0.37993272  0.99993485  0.34430911     0.19500
H1004       H  0.39164062  0.99888488  0.17078482     0.18300
H1005       H  0.41107794  0.03827001  0.18460199     0.14500
H1006       H  0.36725555  0.96199657  0.33562101     0.14400
H1007       H  0.40018355  0.03663769  0.33207743     0.32600
H1008       H  0.37779899  0.96215952  0.18804967     0.35300
C1009       C  0.46294101  0.11995088  0.48580564     0.20900
C1010       C  0.47390511  0.12377216  0.52569281    -0.39000
C1011       C  0.46453329  0.11865172  0.56882818     0.19900
C1012       C  0.44564530  0.11054531  0.57220676     0.22500
C1013       C  0.43463793  0.10664083  0.53214548    -0.39500
C1014       C  0.44401632  0.11159044  0.48875481     0.21300
N1015       N  0.46838993  0.12122277  0.44085128    -0.32700
C1016       C  0.45290003  0.11333609  0.41470220    -0.10300
C1017       C  0.43737587  0.10740068  0.44326009    -0.29100
N1018       N  0.43992464  0.10533464  0.61670717    -0.45700
C1019       C  0.45523867  0.10982276  0.64142402    -0.05000
C1020       C  0.47085325  0.11827920  0.61283928    -0.22300
H1021       H  0.48856121  0.12931961  0.52305195     0.19500
H1022       H  0.41979514  0.09933561  0.53439326     0.18300
H1023       H  0.42313600  0.09948308  0.43266973     0.14500
H1024       H  0.48477462  0.12243878  0.62229959     0.14400
H1025       H  0.48173274  0.12573698  0.42899326     0.32600
H1026       H  0.42634371  0.09794363  0.62873200     0.35300
C1027       C  0.51190469  0.07315702  0.26238413     0.20900
C1028       C  0.52229074  0.06793621  0.23514025    -0.39000
C1029       C  0.53832808  0.07066924  0.25622779     0.19900
C1030       C  0.54345938  0.07790301  0.30116715     0.22500
C1031       C  0.53313756  0.08318002  0.32824966    -0.39500
C1032       C  0.51723629  0.08058255  0.30707168     0.21300
N1033       N  0.49699698  0.07341060  0.24895643    -0.32700
C1034       C  0.49302987  0.08121823  0.28522084    -0.10300
C1035       C  0.50525969  0.08580426  0.32215532    -0.29100
N1036       N  0.56020809  0.08114619  0.31119645    -0.45700
C1037       C  0.56600728  0.07634828  0.27214424    -0.05000
C1038       C  0.55264175  0.06945165  0.23726245    -0.22300
H1039       H  0.51864181  0.06297733  0.19936031     0.19500
H1040       H  0.53765015  0.08967344  0.36237686     0.18300
H1041       H  0.50580135  0.09276875  0.35468686     0.14500
H1042       H  0.55394280  0.06577482  0.20147850     0.14400
H1043       H  0.49045244  0.06932015  0.21641584     0.32600
H1044       H  0.56788600  0.08776491  0.34117176     0.35300
C1045       C  0.48121472  0.81409310  0.08220295     0.20900
C1046       C  0.49706090  0.82283239  0.11080387    -0.39000
C1047       C  0.50228517  0.84049136  0.12748496     0.19900
C1048       C  0.49254678  0.84866763  0.11563804     0.22500
C1049       C  0.47698302  0.84007413  0.08731002    -0.39500
C1050       C  0.47168875  0.82256883  0.07162683     0.21300
N1051       N  0.47352358  0.79764756  0.06022285    -0.32700
C1052       C  0.45892115  0.79574711  0.03585073    -0.10300
C1053       C  0.45759357  0.81119377  0.04262455    -0.29100
N1054       N  0.49950912  0.86497346  0.13653283    -0.45700
C1055       C  0.51377099  0.86747545  0.16275492    -0.05000
C1056       C  0.51613607  0.85254112  0.15785238    -0.22300
H1057       H  0.50463544  0.81635938  0.11966477     0.19500
H1058       H  0.46940855  0.84654584  0.07835400     0.18300
H1059       H  0.44816312  0.81420558  0.02578284     0.14500
H1060       H  0.52601349  0.85042463  0.17565545     0.14400
H1061       H  0.47853963  0.78884568  0.05965956     0.32600
H1062       H  0.49434394  0.87362848  0.13451001     0.35300
C1063       C  0.48089951  0.81483682  0.91351172     0.20900
C1064       C  0.49886659  0.82745340  0.89774866    -0.39000
C1065       C  0.50095756  0.84237258  0.87235731     0.19900
C1066       C  0.48624290  0.84453904  0.86412646     0.22500
C1067       C  0.46843174  0.83212924  0.88044881    -0.39500
C1068       C  0.46633273  0.81714662  0.90508725     0.21300
N1069       N  0.47558253  0.80048418  0.94175819    -0.32700
C1070       C  0.45745088  0.79348237  0.95209393    -0.10300
C1071       C  0.45132856  0.80371220  0.92909662    -0.29100
N1072       N  0.49155200  0.85955527  0.83888768    -0.45700
C1073       C  0.50977874  0.86711055  0.83038826    -0.05000
C1074       C  0.51626510  0.85686972  0.85110570    -0.22300
H1075       H  0.51037990  0.82585985  0.90513663     0.19500
H1076       H  0.45705314  0.83411530  0.87479826     0.18300
H1077       H  0.43841023  0.80309473  0.93394350     0.14500
H1078       H  0.53011327  0.85943149  0.84989935     0.14400
H1079       H  0.48429797  0.79689009  0.95721704     0.32600
H1080       H  0.48315265  0.86424725  0.82738408     0.35300
C1081       C  0.26286114  0.70901551  0.03653992     0.20900
C1082       C  0.27896410  0.72088224  0.06193793    -0.39000
C1083       C  0.29237205  0.73662400  0.03817789     0.19900
C1084       C  0.28987342  0.74027307  0.99267238     0.22500
C1085       C  0.27379114  0.72837458  0.96725765    -0.39500
C1086       C  0.26041028  0.71261069  0.99096228     0.21300
N1087       N  0.24809288  0.69328734  0.05130927    -0.32700
C1088       C  0.23586315  0.68663680  0.01522974    -0.10300
C1089       C  0.24334402  0.69839190  0.97661697    -0.29100
N1090       N  0.30460121  0.75603188  0.97784045    -0.45700
C1091       C  0.31674601  0.76275121  0.01416190    -0.05000
C1092       C  0.30951236  0.75077259  0.05228834    -0.22300
H1093       H  0.28091864  0.71805247  0.09763081     0.19500
H1094       H  0.27182779  0.73120327  0.93157154     0.18300
H1095       H  0.23727514  0.69685864  0.94243469     0.14500
H1096       H  0.31596049  0.75230192  0.08595085     0.14400
H1097       H  0.24629363  0.68745611  0.08441163     0.32600
H1098       H  0.30628974  0.76158992  0.94443773     0.35300
C1099       C  0.37142356  0.76944143  0.98875542     0.20900
C1100       C  0.38349505  0.76668710  0.96000162    -0.39000
C1101       C  0.39943854  0.76909746  0.98199288     0.19900
C1102       C  0.40294504  0.77384670  0.02893238     0.22500
C1103       C  0.39087047  0.77642642  0.05757935    -0.39500
C1104       C  0.37508605  0.77410738  0.03568242     0.21300
N1105       N  0.35641578  0.76983521  0.97559938    -0.32700
C1106       C  0.35074748  0.77540262  0.01399846    -0.10300
C1107       C  0.36189030  0.77755715  0.05248856    -0.29100
N1108       N  0.41974331  0.77732849  0.04053467    -0.45700
C1109       C  0.42764765  0.77540421  0.00062304    -0.05000
C1110       C  0.41489995  0.76951408  0.96365046    -0.22300
H1111       H  0.38111017  0.76376140  0.92275920     0.19500
H1112       H  0.39404289  0.78088499  0.09384327     0.18300
H1113       H  0.36116001  0.78208852  0.08770437     0.14500
H1114       H  0.41729020  0.76749637  0.92721532     0.14400
H1115       H  0.35104447  0.76757609  0.94169543     0.32600
H1116       H  0.42574884  0.78169111  0.07361296     0.35300
C1117       C  0.33387987  0.81097195  0.92936599     0.20900
C1118       C  0.32708379  0.82157805  0.91170855    -0.39000
C1119       C  0.33932095  0.83637845  0.88342378     0.19900
C1120       C  0.35695953  0.84025363  0.87392695     0.22500
C1121       C  0.36373788  0.82973046  0.89171071    -0.39500
C1122       C  0.35148955  0.81491802  0.91960833     0.21300
N1123       N  0.32559931  0.79719502  0.96009273    -0.32700
C1124       C  0.33789521  0.79211145  0.97017462    -0.10300
C1125       C  0.35430312  0.80308872  0.94526646    -0.29100
N1126       N  0.36607584  0.85515119  0.84719833    -0.45700
C1127       C  0.35427983  0.86094652  0.83930619    -0.05000
C1128       C  0.33736245  0.84956514  0.86133997    -0.22300
H1129       H  0.31341891  0.81873084  0.92016143     0.19500
H1130       H  0.37768778  0.83307174  0.88507734     0.18300
H1131       H  0.36721175  0.80364513  0.94879045     0.14500
H1132       H  0.32532992  0.85076053  0.86120311     0.14400
H1133       H  0.31280403  0.79244717  0.97606610     0.32600
H1134       H  0.37958327  0.86104042  0.83491740     0.35300
C1135       C  0.35183270  0.81891610  0.09384057     0.20900
C1136       C  0.36501815  0.83609659  0.11158778    -0.39000
C1137       C  0.35827769  0.84506305  0.13901081     0.19900
C1138       C  0.33974827  0.83764977  0.14801868     0.22500
C1139       C  0.32646203  0.82029336  0.13017140    -0.39500
C1140       C  0.33328407  0.81115640  0.10287156     0.21300
N1141       N  0.35486366  0.80842237  0.06433101    -0.32700
C1142       C  0.33825689  0.79337493  0.05453110    -0.10300
C1143       C  0.32436150  0.79477208  0.07792552    -0.29100
N1144       N  0.33705927  0.84920033  0.17497162    -0.45700
C1145       C  0.35406483  0.86397805  0.18304078    -0.05000
C1146       C  0.36754980  0.86177311  0.16119567    -0.22300
H1147       H  0.37952622  0.84216271  0.10406898     0.19500
H1148       H  0.31191578  0.81444067  0.13657380     0.18300
H1149       H  0.30967056  0.78575024  0.07432133     0.14500
H1150       H  0.38227746  0.87108694  0.16208940     0.14400
H1151       H  0.36752216  0.81196098  0.04920289     0.32600
H1152       H  0.32453988  0.84702395  0.18782559     0.35300
C1153       C  0.47507150  0.55543857  0.26491261     0.20900
C1154       C  0.46450168  0.53850555  0.24228614    -0.39000
C1155       C  0.44668651  0.52735374  0.26015285     0.19900
C1156       C  0.43999751  0.53270318  0.29773648     0.22500
C1157       C  0.45052996  0.54963381  0.32019661    -0.39500
C1158       C  0.46828420  0.56080218  0.30221825     0.21300
N1159       N  0.49193561  0.56895796  0.25269764    -0.32700
C1160       C  0.49578048  0.58303438  0.28210997    -0.10300
C1161       C  0.48140389  0.57849393  0.31356561    -0.29100
N1162       N  0.42221329  0.52044955  0.30543914    -0.45700
C1163       C  0.41748205  0.50734633  0.27221102    -0.05000
C1164       C  0.43239424  0.51097861  0.24362851    -0.22300
H1165       H  0.46954057  0.53459477  0.21197361     0.19500
H1166       H  0.44504862  0.55405910  0.34840530     0.18300
H1167       H  0.48038696  0.58719731  0.33978168     0.14500
H1168       H  0.43244018  0.50334155  0.21306363     0.14400
H1169       H  0.49997084  0.56892152  0.22467116     0.32600
H1170       H  0.41355884  0.52145897  0.33004583     0.35300
C1171       C  0.56265978  0.64378090  0.55594298     0.20900
C1172       C  0.56761483  0.63900550  0.51323203    -0.39000
C1173       C  0.56295759  0.64458332  0.47223730     0.19900
C1174       C  0.55416519  0.65434053  0.47351257     0.22500
C1175       C  0.54924436  0.65915886  0.51634746    -0.39500
C1176       C  0.55380686  0.65347637  0.55744477     0.21300
N1177       N  0.56397700  0.63855488  0.59935164    -0.32700
C1178       C  0.55584240  0.64486327  0.62887631    -0.10300
C1179       C  0.54945383  0.65437317  0.60406102    -0.29100
N1180       N  0.54966730  0.65643336  0.42972250    -0.45700
C1181       C  0.55535282  0.64766551  0.40050374    -0.05000
C1182       C  0.56387530  0.64029784  0.42577276    -0.22300
H1183       H  0.57384847  0.63077952  0.51195880     0.19500
H1184       H  0.54167504  0.66609940  0.51755406     0.18300
H1185       H  0.54166410  0.66015373  0.61786835     0.14500
H1186       H  0.56894009  0.63186243  0.41224526     0.14400
H1187       H  0.56926322  0.63040065  0.60807695     0.32600
H1188       H  0.54206292  0.66231761  0.42063636     0.35300
C1189       C  0.34048696  0.47371615  0.44740141     0.20900
C1190       C  0.34608895  0.48467183  0.48789045    -0.39000
C1191       C  0.34220361  0.47543673  0.53048985     0.19900
C1192       C  0.33337647  0.45663852  0.53290936     0.22500
C1193       C  0.32790987  0.44563290  0.49215712    -0.39500
C1194       C  0.33176563  0.45491504  0.44927264     0.21300
N1195       N  0.34482247  0.47949023  0.40299830    -0.32700
C1196       C  0.33907042  0.46436998  0.37612334    -0.10300
C1197       C  0.33059209  0.44869623  0.40358849    -0.29100
N1198       N  0.33347535  0.45144928  0.57729299    -0.45700
C1199       C  0.34278576  0.46711431  0.60267131    -0.05000
C1200       C  0.34822275  0.48228353  0.57481157    -0.22300
H1201       H  0.35391278  0.49940031  0.48619489     0.19500
H1202       H  0.32205296  0.43105062  0.49361421     0.18300
H1203       H  0.32612770  0.43491881  0.39237278     0.14500
H1204       H  0.35698020  0.49646931  0.58475579     0.14400
H1205       H  0.35275943  0.49302152  0.39214796     0.32600
H1206       H  0.32919203  0.43830166  0.58857526     0.35300
C1207       C  0.48038911  0.54770873  0.76306274     0.20900
C1208       C  0.46586635  0.53292712  0.78664133    -0.39000
C1209       C  0.45057331  0.52133690  0.75904821     0.19900
C1210       C  0.44988213  0.52413251  0.71143055     0.22500
C1211       C  0.46447696  0.53875943  0.68776061    -0.39500
C1212       C  0.47967436  0.55044661  0.71542790     0.21300
N1213       N  0.49510517  0.56213374  0.78269475    -0.32700
C1214       C  0.50359762  0.57414944  0.74736931    -0.10300
C1215       C  0.49457076  0.56724775  0.70483033    -0.29100
N1216       N  0.43296541  0.51286594  0.69464032    -0.45700
C1217       C  0.42280852  0.50309676  0.73199296    -0.05000
C1218       C  0.43332082  0.50772436  0.77258430    -0.22300
H1219       H  0.46591507  0.53133717  0.82431730     0.19500
H1220       H  0.46352206  0.54158633  0.65128575     0.18300
H1221       H  0.49753910  0.57428465  0.67164306     0.14500
H1222       H  0.42859157  0.50291401  0.80792820     0.14400
H1223       H  0.49830722  0.56429065  0.81843929     0.32600
H1224       H  0.42827744  0.51285048  0.66087013     0.35300
C1225       C  0.62995569  0.61307208  0.81910303     0.20900
C1226       C  0.62759176  0.62699562  0.80193997    -0.39000
C1227       C  0.61251218  0.62764252  0.82021966     0.19900
C1228       C  0.60065756  0.61531984  0.85326115     0.22500
C1229       C  0.60320431  0.60162547  0.87103465    -0.39500
C1230       C  0.61823393  0.60096149  0.85270121     0.21300
N1231       N  0.64057819  0.60721800  0.80001681    -0.32700
C1232       C  0.63533371  0.59110087  0.82084754    -0.10300
C1233       C  0.62179456  0.58707206  0.85482365    -0.29100
N1234       N  0.58544848  0.61630365  0.85779087    -0.45700
C1235       C  0.58742807  0.62914497  0.82705993    -0.05000
C1236       C  0.60436901  0.63684156  0.80386678    -0.22300
H1237       H  0.63584065  0.63559728  0.77318369     0.19500
H1238       H  0.59318317  0.59114950  0.89407100     0.18300
H1239       H  0.61364412  0.57432675  0.87323315     0.14500
H1240       H  0.60892539  0.64602588  0.77433052     0.14400
H1241       H  0.64902989  0.61257402  0.77038209     0.32600
H1242       H  0.57357722  0.60735737  0.87666687     0.35300
C1243       C  0.40139915  0.39573596  0.74898821     0.20900
C1244       C  0.38943487  0.39840113  0.72141282    -0.39000
C1245       C  0.38301202  0.40904831  0.74187979     0.19900
C1246       C  0.38803884  0.41643406  0.78663689     0.22500
C1247       C  0.40024138  0.41397418  0.81402587    -0.39500
C1248       C  0.40674273  0.40334345  0.79343558     0.21300
N1249       N  0.41046896  0.38741412  0.73576407    -0.32700
C1250       C  0.42190046  0.38980963  0.77159118    -0.10300
C1251       C  0.41991627  0.39966613  0.80842311    -0.29100
N1252       N  0.38153674  0.42748499  0.79612370    -0.45700
C1253       C  0.37264907  0.42745560  0.75682635    -0.05000
C1254       C  0.37316374  0.41597419  0.72238881    -0.22300
H1255       H  0.38601351  0.39321483  0.68575087     0.19500
H1256       H  0.40492617  0.42049444  0.84805139     0.18300
H1257       H  0.42783603  0.40446623  0.84045257     0.14500
H1258       H  0.36841905  0.41422183  0.68648486     0.14400
H1259       H  0.40973724  0.38140244  0.70302427     0.32600
H1260       H  0.38445230  0.43586204  0.82574894     0.35300
C1261       C  0.52501778  0.46379149  0.75916004     0.20900
C1262       C  0.53779350  0.47885354  0.78555593    -0.39000
C1263       C  0.55272379  0.49240121  0.76031249     0.19900
C1264       C  0.55485669  0.49107703  0.71229404     0.22500
C1265       C  0.54189114  0.47609572  0.68565698    -0.39500
C1266       C  0.52687517  0.46252317  0.71099371     0.21300
N1267       N  0.51096002  0.44820596  0.77601366    -0.32700
C1268       C  0.50379489  0.43695479  0.73838009    -0.10300
C1269       C  0.51314831  0.44541398  0.69705112    -0.29100
N1270       N  0.57157509  0.50434679  0.69810849    -0.45700
C1271       C  0.58005096  0.51392149  0.73756121    -0.05000
C1272       C  0.56863889  0.50714960  0.77677192    -0.22300
H1273       H  0.53679105  0.47944008  0.82345289     0.19500
H1274       H  0.54391905  0.47459178  0.64859200     0.18300
H1275       H  0.51109026  0.43937304  0.66229530     0.14500
H1276       H  0.57220469  0.51128738  0.81311286     0.14400
H1277       H  0.50710509  0.44507432  0.81124671     0.32600
H1278       H  0.57737910  0.50584917  0.66464580     0.35300
C1279       C  0.62060136  0.60848328  0.20454439     0.20900
C1280       C  0.61987813  0.62327925  0.22408602    -0.39000
C1281       C  0.60600583  0.62592732  0.20686680     0.19900
C1282       C  0.59379851  0.61464894  0.17270732     0.22500
C1283       C  0.59460973  0.59999668  0.15299034    -0.39500
C1284       C  0.60838254  0.59732799  0.17026812     0.21300
N1285       N  0.63043274  0.60136309  0.22013467    -0.32700
C1286       C  0.62417334  0.58541058  0.19624848    -0.10300
C1287       C  0.61062996  0.58263918  0.16435690    -0.29100
N1288       N  0.57999296  0.61780014  0.16829740    -0.45700
C1289       C  0.58314497  0.63099924  0.20017934    -0.05000
C1290       C  0.59951246  0.63672013  0.22419556    -0.22300
H1291       H  0.62856605  0.63128136  0.25308805     0.19500
H1292       H  0.58432087  0.59047139  0.12863371     0.18300
H1293       H  0.60218360  0.57054508  0.14330909     0.14500
H1294       H  0.60458980  0.64570332  0.25455563     0.14400
H1295       H  0.63946225  0.60610379  0.24853144     0.32600
H1296       H  0.56810028  0.61004225  0.14845260     0.35300
C1297       C  0.65354029  0.55979533  0.45257826     0.20900
C1298       C  0.66121650  0.55702692  0.49271020    -0.39000
C1299       C  0.65579127  0.56091370  0.53601587     0.19900
C1300       C  0.64355161  0.56692854  0.53885825     0.22500
C1301       C  0.63566813  0.56938519  0.49896629    -0.39500
C1302       C  0.64115561  0.56562051  0.45589576     0.21300
N1303       N  0.65570234  0.55626438  0.40748310    -0.32700
C1304       C  0.64440324  0.55966134  0.38237989    -0.10300
C1305       C  0.63515328  0.56553076  0.41130511    -0.29100
N1306       N  0.63963807  0.56853940  0.58377386    -0.45700
C1307       C  0.64931408  0.56341594  0.60998687    -0.05000
C1308       C  0.65967564  0.55865075  0.58154412    -0.22300
H1309       H  0.67038943  0.55185386  0.49044338     0.19500
H1310       H  0.62562843  0.57348943  0.50136886     0.18300
H1311       H  0.62476121  0.56848000  0.40125550     0.14500
H1312       H  0.66789666  0.55311563  0.59254558     0.14400
H1313       H  0.66349268  0.55087168  0.39492333     0.32600
H1314       H  0.63013756  0.57192867  0.59580928     0.35300
C1315       C  0.39577538  0.38960941  0.28086704     0.20900
C1316       C  0.38870343  0.39869917  0.30659715    -0.39000
C1317       C  0.38041780  0.40612100  0.28012909     0.19900
C1318       C  0.37935171  0.40476931  0.23157804     0.22500
C1319       C  0.38645767  0.39564293  0.20579293    -0.39500
C1320       C  0.39458375  0.38799751  0.23235796     0.21300
N1321       N  0.40591304  0.38309281  0.29750842    -0.32700
C1322       C  0.41122741  0.37719493  0.25953499    -0.10300
C1323       C  0.40424666  0.37981989  0.21821048    -0.29100
N1324       N  0.37256025  0.41465255  0.21451342    -0.45700
C1325       C  0.36946067  0.42245825  0.25250185    -0.05000
C1326       C  0.37403199  0.41727145  0.29397817    -0.22300
H1327       H  0.39026394  0.40055656  0.34434081     0.19500
H1328       H  0.38633531  0.39516545  0.16774646     0.18300
H1329       H  0.40724207  0.37760735  0.18248506     0.14500
H1330       H  0.37406211  0.42218549  0.32927633     0.14400
H1331       H  0.40993366  0.38365372  0.33234213     0.32600
H1332       H  0.37141809  0.41703442  0.17917385     0.35300
C1333       C  0.46804835  0.35438257  0.46240809     0.20900
C1334       C  0.47941886  0.36337213  0.50075176    -0.39000
C1335       C  0.47084575  0.35899847  0.54475324     0.19900
C1336       C  0.45230295  0.34639351  0.55070413     0.22500
C1337       C  0.44082241  0.33732532  0.51200509    -0.39500
C1338       C  0.44941216  0.34193300  0.46747593     0.21300
N1339       N  0.47252755  0.35858027  0.41720346    -0.32700
C1340       C  0.45667749  0.34922299  0.39287887    -0.10300
C1341       C  0.44192277  0.33832275  0.42280892    -0.29100
N1342       N  0.44721770  0.34646977  0.59580662    -0.45700
C1343       C  0.46263254  0.35947735  0.61787936    -0.05000
C1344       C  0.47758568  0.36739823  0.58725620    -0.22300
H1345       H  0.49367425  0.37402155  0.49632271     0.19500
H1346       H  0.42611778  0.32837449  0.51599508     0.18300
H1347       H  0.42749555  0.33056710  0.41390034     0.14500
H1348       H  0.49126175  0.37880652  0.59434695     0.14400
H1349       H  0.48530583  0.36873449  0.40431197     0.32600
H1350       H  0.43390651  0.33926632  0.60969532     0.35300
C1351       C  0.55209820  0.47427280  0.23760817     0.20900
C1352       C  0.53645252  0.46174187  0.21243766    -0.39000
C1353       C  0.52320161  0.44672823  0.23792650     0.19900
C1354       C  0.52535709  0.44437115  0.28497443     0.22500
C1355       C  0.54103513  0.45693222  0.31025093    -0.39500
C1356       C  0.55433574  0.47196124  0.28464400     0.21300
N1357       N  0.56683038  0.48938095  0.22087006    -0.32700
C1358       C  0.57856418  0.49672092  0.25738786    -0.10300
C1359       C  0.57131113  0.48629440  0.29785913    -0.29100
N1360       N  0.51117068  0.42851769  0.30041692    -0.45700
C1361       C  0.50001979  0.42077148  0.26283442    -0.05000
C1362       C  0.50698064  0.43173855  0.22330710    -0.22300
H1363       H  0.53486864  0.46339966  0.17548000     0.19500
H1364       H  0.54288598  0.45497373  0.34681746     0.18300
H1365       H  0.57767711  0.48876714  0.33202795     0.14500
H1366       H  0.50129328  0.42881045  0.18823969     0.14400
H1367       H  0.56889899  0.49426786  0.18653543     0.32600
H1368       H  0.50945779  0.42303806  0.33396567     0.35300
C1369       C  0.45629014  0.71529918  0.98112209     0.20900
C1370       C  0.45992484  0.73065490  0.95480051    -0.39000
C1371       C  0.45563960  0.74284448  0.97680994     0.19900
C1372       C  0.44826454  0.73997687  0.02160803     0.22500
C1373       C  0.44455854  0.72455943  0.04787194    -0.39500
C1374       C  0.44888772  0.71236522  0.02590754     0.21300
N1375       N  0.45844513  0.70140826  0.96725760    -0.32700
C1376       C  0.45240776  0.68928982  0.00336662    -0.10300
C1377       C  0.44635378  0.69583576  0.04062711    -0.29100
N1378       N  0.44506945  0.75335329  0.03417207    -0.45700
C1379       C  0.45045472  0.76503947  0.99731008    -0.05000
C1380       C  0.45703467  0.75868029  0.96069198    -0.22300
H1381       H  0.46548863  0.73284312  0.91943898     0.19500
H1382       H  0.43851339  0.72210630  0.08270554     0.18300
H1383       H  0.44030032  0.68905009  0.07350131     0.14500
H1384       H  0.46183548  0.76454794  0.92625858     0.14400
H1385       H  0.46308011  0.70004803  0.93417425     0.32600
H1386       H  0.43934571  0.75439992  0.06588612     0.35300
C1387       C  0.48345530  0.67135796  0.91791829     0.20900
C1388       C  0.50159635  0.67689167  0.90438408    -0.39000
C1389       C  0.50375099  0.66435154  0.87695845     0.19900
C1390       C  0.48888013  0.64760534  0.86406339     0.22500
C1391       C  0.47078949  0.64201444  0.87794894    -0.39500
C1392       C  0.46865468  0.65454519  0.90539846     0.21300
N1393       N  0.47814814  0.67985593  0.94848895    -0.32700
C1394       C  0.45985151  0.66838786  0.95677663    -0.10300
C1395       C  0.45345273  0.65245732  0.92954335    -0.29100
N1396       N  0.49449556  0.63785089  0.83959720    -0.45700
C1397       C  0.51309635  0.64829533  0.83686204    -0.05000
C1398       C  0.51943220  0.66500931  0.85983217    -0.22300
H1399       H  0.51324556  0.68976526  0.91582969     0.19500
H1400       H  0.45928905  0.62859945  0.86942262     0.18300
H1401       H  0.44011670  0.64006634  0.93151725     0.14500
H1402       H  0.53353934  0.67600184  0.86398374     0.14400
H1403       H  0.48688693  0.69194083  0.96670439     0.32600
H1404       H  0.48614914  0.62467172  0.82615453     0.35300
C1405       C  0.49358847  0.64952244  0.12449782     0.20900
C1406       C  0.47877702  0.64196789  0.09337108    -0.39000
C1407       C  0.47337412  0.65379403  0.07737248     0.19900
C1408       C  0.48199475  0.67190206  0.09079025     0.22500
C1409       C  0.49709167  0.67957995  0.12196649    -0.39500
C1410       C  0.50254967  0.66761941  0.13843753     0.21300
N1411       N  0.50080276  0.64076182  0.14525272    -0.32700
C1412       C  0.51459194  0.65313314  0.17302907    -0.10300
C1413       C  0.51623423  0.67020132  0.16962303    -0.29100
N1414       N  0.47441815  0.68027522  0.06855509    -0.45700
C1415       C  0.46086897  0.66729498  0.04075673    -0.05000
C1416       C  0.46006181  0.65068005  0.04571676    -0.22300
H1417       H  0.47193058  0.62782746  0.08230026     0.19500
H1418       H  0.50406201  0.69376640  0.13255750     0.18300
H1419       H  0.52570474  0.68259361  0.18836459     0.14500
H1420       H  0.45139893  0.63812162  0.02652398     0.14400
H1421       H  0.49634509  0.62695999  0.14132264     0.32600
H1422       H  0.47887272  0.69411413  0.07029396     0.35300
C1423       C  0.26291125  0.56186230  0.03790339     0.20900
C1424       C  0.27877399  0.56442175  0.06055008    -0.39000
C1425       C  0.29141320  0.56247153  0.03217791     0.19900
C1426       C  0.28848351  0.55829575  0.98482820     0.22500
C1427       C  0.27267546  0.55581714  0.96212101    -0.39500
C1428       C  0.25999684  0.55766637  0.99055599     0.21300
N1429       N  0.24868724  0.56257889  0.05724782    -0.32700
C1430       C  0.23628620  0.55855071  0.02235945    -0.10300
C1431       C  0.24312301  0.55554577  0.98003592    -0.29100
N1432       N  0.30240471  0.55702780  0.96573540    -0.45700
C1433       C  0.31444646  0.56025941  0.00109626    -0.05000
C1434       C  0.30802242  0.56399214  0.04296489    -0.22300
H1435       H  0.28105582  0.56757745  0.09771770     0.19500
H1436       H  0.27030193  0.55246850  0.92504905     0.18300
H1437       H  0.23658245  0.55208277  0.94598481     0.14500
H1438       H  0.31463773  0.56730003  0.07691592     0.14400
H1439       H  0.24727899  0.56524160  0.09250681     0.32600
H1440       H  0.30369020  0.55445392  0.93034224     0.35300
C1441       C  0.37362304  0.60488706  0.02569294     0.20900
C1442       C  0.38945796  0.61631904  0.05202098    -0.39000
C1443       C  0.40327283  0.63195271  0.02919605     0.19900
C1444       C  0.40153738  0.63614221  0.98362616     0.22500
C1445       C  0.38542011  0.62483302  0.95743121    -0.39500
C1446       C  0.37153561  0.60899946  0.98028740     0.21300
N1447       N  0.35980518  0.58816549  0.03765585    -0.32700
C1448       C  0.34869495  0.58106625  0.99951740    -0.10300
C1449       C  0.35534264  0.59409110  0.96349504    -0.29100
N1450       N  0.41753159  0.65074406  0.96857746    -0.45700
C1451       C  0.42977819  0.65561453  0.00437276    -0.05000
C1452       C  0.42092464  0.64439009  0.04324327    -0.22300
H1453       H  0.39136378  0.61271404  0.08689483     0.19500
H1454       H  0.38419614  0.62760691  0.92110507     0.18300
H1455       H  0.34996762  0.59220967  0.92825085     0.14500
H1456       H  0.42681225  0.64461351  0.07689399     0.14400
H1457       H  0.35861556  0.58168915  0.06943442     0.32600
H1458       H  0.42027802  0.65639830  0.93503003     0.35300
C1459       C  0.34845928  0.53562766  0.06195557     0.20900
C1460       C  0.36055313  0.52959244  0.07188304    -0.39000
C1461       C  0.35371961  0.51456519  0.10190356     0.19900
C1462       C  0.33620818  0.50624270  0.12097908     0.22500
C1463       C  0.32408670  0.51232079  0.11091121    -0.39500
C1464       C  0.33089007  0.52732660  0.08046611     0.21300
N1465       N  0.35145345  0.54901642  0.03263089    -0.32700
C1466       C  0.33569626  0.54943379  0.03149106    -0.10300
C1467       C  0.32250806  0.53599407  0.06139364    -0.29100
N1468       N  0.33325031  0.49255859  0.14963880    -0.45700
C1469       C  0.34898092  0.49213675  0.14872007    -0.05000
C1470       C  0.36202041  0.50566605  0.11915067    -0.22300
H1471       H  0.37426340  0.53605774  0.05697819     0.19500
H1472       H  0.31031900  0.50575646  0.12542408     0.18300
H1473       H  0.30836233  0.53224179  0.06635144     0.14500
H1474       H  0.37601615  0.50908601  0.11285344     0.14400
H1475       H  0.36337418  0.55695913  0.01280071     0.32600
H1476       H  0.32151587  0.48446149  0.16995417     0.35300
C1477       C  0.33635652  0.51021455  0.85565737     0.20900
C1478       C  0.32311893  0.51177720  0.88200427    -0.39000
C1479       C  0.32915422  0.52900079  0.90258799     0.19900
C1480       C  0.34700236  0.54342155  0.89774719     0.22500
C1481       C  0.36020910  0.54185012  0.87170088    -0.39500
C1482       C  0.35415004  0.52481361  0.85067214     0.21300
N1483       N  0.33431538  0.49533917  0.83301332    -0.32700
C1484       C  0.35094154  0.50073027  0.81319535    -0.10300
C1485       C  0.36358095  0.51896938  0.82355248    -0.29100
N1486       N  0.34995597  0.55756911  0.92510834    -0.45700
C1487       C  0.33390343  0.55237164  0.94827536    -0.05000
C1488       C  0.32059123  0.53452660  0.93441424    -0.22300
H1489       H  0.30929501  0.50033105  0.88711818     0.19500
H1490       H  0.37432203  0.55299068  0.86887389     0.18300
H1491       H  0.37784813  0.52689347  0.81271350     0.14500
H1492       H  0.30714149  0.52596183  0.95002596     0.14400
H1493       H  0.32239396  0.48246850  0.83074568     0.32600
H1494       H  0.36279719  0.56918407  0.93136350     0.35300
C1495       C  0.53658650  0.29013433  0.01845291     0.20900
C1496       C  0.52543052  0.27098265  0.02185646    -0.39000
C1497       C  0.53472095  0.26139058  0.02478367     0.19900
C1498       C  0.55362521  0.27021444  0.02443089     0.22500
C1499       C  0.56476953  0.28936429  0.02188866    -0.39500
C1500       C  0.55549662  0.29894813  0.01905650     0.21300
N1501       N  0.53114619  0.30224987  0.01363478    -0.32700
C1502       C  0.54663938  0.31915696  0.01180112    -0.10300
C1503       C  0.56213297  0.31742946  0.01535385    -0.29100
N1504       N  0.55913629  0.25807063  0.02462108    -0.45700
C1505       C  0.54369259  0.24106797  0.02450695    -0.05000
C1506       C  0.52816189  0.24284456  0.02568117    -0.22300
H1507       H  0.51058987  0.26402022  0.02117389     0.19500
H1508       H  0.57961303  0.29628819  0.02125747     0.18300
H1509       H  0.57644683  0.32815360  0.01509771     0.14500
H1510       H  0.51387773  0.23215631  0.02645598     0.14400
H1511       H  0.51756787  0.29907754  0.01220505     0.32600
H1512       H  0.57279441  0.26142997  0.02328794     0.35300
C1513       C  0.51655453  0.34782055  0.07071683     0.20900
C1514       C  0.50639547  0.35631506  0.07470748    -0.39000
C1515       C  0.49262149  0.34937605  0.10897084     0.19900
C1516       C  0.48932415  0.33522529  0.13812711     0.22500
C1517       C  0.49933148  0.32633833  0.13330509    -0.39500
C1518       C  0.51302057  0.33312358  0.09785759     0.21300
N1519       N  0.52991432  0.35178852  0.03950400    -0.32700
C1520       C  0.53461760  0.33903298  0.04410767    -0.10300
C1521       C  0.52461677  0.32733076  0.08145267    -0.29100
N1522       N  0.47702274  0.33295737  0.17189878    -0.45700
C1523       C  0.47267325  0.34583753  0.16370000    -0.05000
C1524       C  0.48183855  0.35596252  0.12412987    -0.22300
H1525       H  0.50922060  0.36774839  0.05300653     0.19500
H1526       H  0.49679667  0.31516869  0.15567088     0.18300
H1527       H  0.52499113  0.31564113  0.09343860     0.14500
H1528       H  0.48214341  0.36791778  0.11128715     0.14400
H1529       H  0.53467237  0.36191476  0.01398523     0.32600
H1530       H  0.47306842  0.32431215  0.20078796     0.35300
C1531       C  0.51499441  0.33495169  0.91868318     0.20900
C1532       C  0.49748463  0.33156278  0.90632103    -0.39000
C1533       C  0.49717478  0.34349351  0.87338837     0.19900
C1534       C  0.51315114  0.35766133  0.85417403     0.22500
C1535       C  0.53062433  0.36120139  0.86703221    -0.39500
C1536       C  0.53090170  0.34934550  0.90016384     0.21300
N1537       N  0.51896338  0.32713140  0.95355880    -0.32700
C1538       C  0.53757006  0.33702667  0.95949573    -0.10300
C1539       C  0.54539775  0.35075267  0.92521135    -0.29100
N1540       N  0.50933629  0.36753714  0.82535893    -0.45700
C1541       C  0.49079322  0.35981507  0.82624749    -0.05000
C1542       C  0.48269090  0.34470338  0.85588411    -0.22300
H1543       H  0.48504163  0.32086772  0.92266384     0.19500
H1544       H  0.54313298  0.37285575  0.85378163     0.18300
H1545       H  0.55945677  0.36193157  0.92256614     0.14500
H1546       H  0.46824146  0.33600808  0.86417262     0.14400
H1547       H  0.50928022  0.31725474  0.97618298     0.32600
H1548       H  0.51886105  0.37915001  0.80692471     0.35300
C1549       C  0.73357153  0.45468095  0.00862567     0.20900
C1550       C  0.72336095  0.46164987  0.02959758    -0.39000
C1551       C  0.70628899  0.45618000  0.00889621     0.19900
C1552       C  0.69996263  0.44481066  0.97003538     0.22500
C1553       C  0.71020673  0.43792492  0.94886667    -0.39500
C1554       C  0.72717149  0.44323136  0.96991584     0.21300
N1555       N  0.75027811  0.45803012  0.02124883    -0.21900
C1556       C  0.75468960  0.44847689  0.99071033    -0.10300
C1557       C  0.74045353  0.43921154  0.95794246    -0.29100
N1558       N  0.68352300  0.44189804  0.95660782    -0.45700
C1559       C  0.67894489  0.45124189  0.98738633    -0.05000
C1560       C  0.69314585  0.46050697  0.02028718    -0.22300
H1561       H  0.72836156  0.47070871  0.05981370     0.19500
H1562       H  0.70532553  0.42907511  0.91822913     0.18300
H1563       H  0.74006653  0.43116686  0.92796297     0.14500
H1564       H  0.69404678  0.46946220  0.04859007     0.14400
H1565       H  0.75818912  0.46667942  0.04857676     0.32600
H1566       H  0.67621675  0.43442594  0.92710526     0.35300
C1567       C  0.61830809  0.41015478  0.01939431     0.20900
C1568       C  0.60175682  0.39969526  0.04457494    -0.39000
C1569       C  0.59000401  0.38175237  0.02813648     0.19900
C1570       C  0.59432078  0.37473518  0.98951474     0.22500
C1571       C  0.61093673  0.38518531  0.96447869    -0.39500
C1572       C  0.62273601  0.40312948  0.98103753     0.21300
N1573       N  0.63117339  0.42787342  0.02614478    -0.32700
C1574       C  0.64423479  0.43242879  0.99203346    -0.10300
C1575       C  0.63918888  0.41710938  0.96320461    -0.29100
N1576       N  0.58017348  0.35790316  0.97865330    -0.45700
C1577       C  0.56641309  0.35407986  0.00998972    -0.05000
C1578       C  0.57245610  0.36869265  0.04215688    -0.22300
H1579       H  0.59802032  0.40531365  0.07392412     0.19500
H1580       H  0.61418974  0.37992365  0.93346305     0.18300
H1581       H  0.64596234  0.41639572  0.93163145     0.14500
H1582       H  0.56476696  0.37015332  0.07065717     0.14400
H1583       H  0.63045816  0.43634520  0.05161227     0.32600
H1584       H  0.57952721  0.34987276  0.94993376     0.35300
C1585       C  0.65951329  0.50952995  0.10535556     0.20900
C1586       C  0.66019613  0.50505140  0.05832095    -0.39000
C1587       C  0.66098370  0.48939130  0.05038088     0.19900
C1588       C  0.66136986  0.47890499  0.08601649     0.22500
C1589       C  0.66043169  0.48324337  0.13364691    -0.39500
C1590       C  0.65937989  0.49895951  0.14183748     0.21300
N1591       N  0.65700240  0.52285742  0.12132081    -0.32700
C1592       C  0.65483758  0.52072977  0.16841097    -0.10300
C1593       C  0.65640298  0.50605000  0.18273709    -0.29100
N1594       N  0.66170321  0.46441970  0.06791477    -0.45700
C1595       C  0.66123759  0.46558346  0.02017740    -0.05000
C1596       C  0.66064235  0.48112910  0.00886160    -0.22300
H1597       H  0.65953948  0.51288554  0.02976888     0.19500
H1598       H  0.65994854  0.47474501  0.16201665     0.18300
H1599       H  0.65426224  0.50049515  0.21774986     0.14500
H1600       H  0.65958614  0.48594326  0.97498507     0.14400
H1601       H  0.65542742  0.53197492  0.10096303     0.32600
H1602       H  0.66189382  0.45419003  0.08682159     0.35300
C1603       C  0.64555700  0.49006990  0.83747677     0.20900
C1604       C  0.63696644  0.47262489  0.85735063    -0.39000
C1605       C  0.64842165  0.46845538  0.88229328     0.19900
C1606       C  0.66708600  0.48064698  0.88652491     0.22500
C1607       C  0.67555518  0.49836928  0.86795115    -0.39500
C1608       C  0.66406010  0.50263438  0.84340438     0.21300
N1609       N  0.63746994  0.49748276  0.81408926    -0.32700
C1610       C  0.65074868  0.51503504  0.80572509    -0.10300
C1611       C  0.66757838  0.51883308  0.82367650    -0.29100
N1612       N  0.67441823  0.47442693  0.91726470    -0.45700
C1613       C  0.66030042  0.45852596  0.93481617    -0.05000
C1614       C  0.64389522  0.45426344  0.91253690    -0.22300
H1615       H  0.62226151  0.46329407  0.85543381     0.19500
H1616       H  0.68989070  0.50838148  0.87405865     0.18300
H1617       H  0.68050143  0.53171487  0.82308583     0.14500
H1618       H  0.63009868  0.44368650  0.92219783     0.14400
H1619       H  0.62354182  0.49117413  0.80587838     0.32600
H1620       H  0.68770215  0.48192982  0.93083584     0.35300
loop_ 
_geom_bond_atom_site_label_1 
_geom_bond_atom_site_label_2 
_geom_bond_distance 
_geom_bond_site_symmetry_2 
_ccdc_geom_bond_type 
C1         C1559   1.547       .  S
C1         C1574   1.551       .  S
C1         C1595   1.553   1_556  S
C1         C1613   1.540       .  S
C2         C1502   1.553       .  S
C2         C1520   1.536       .  S
C2         C1538   1.552   1_554  S
C2         C1577   1.555       .  S
C3         C1433   1.551   1_556  S
C3         C1448   1.547       .  S
C3         C1466   1.542   1_556  S
C3         C1487   1.537       .  S
C4         C1376   1.549       .  S
C4         C1394   1.539   1_554  S
C4         C1415   1.543       .  S
C4         C1451   1.553       .  S
In5           O7   2.244       .  S
In5           O8   2.254       .  S
In5          O16   2.284       .  S
In5          O10   2.242       .  S
In5          O12   2.229       .  S
In5          O13   2.193       .  S
In5          O14   2.289       .  S
In5          O17   2.267       .  S
C6           O12   1.256       .  A
C6           O14   1.259       .  A
C6         C1523   1.473       .  S
O7           C15   1.255       .  A
O8           C15   1.259       .  A
C9           O16   1.261       .  A
C9           O10   1.254       .  A
C9         C1322   1.474       .  S
C11          O13   1.260       .  A
C11          O17   1.269       .  A
C11        C1340   1.466       .  S
C15        C1361   1.463       .  S
In18         O20   2.249       .  S
In18         O21   2.244       .  S
In18         O29   2.261       .  S
In18         O23   2.266       .  S
In18         O25   2.285       .  S
In18         O26   2.214       .  S
In18         O27   2.247       .  S
In18         O30   2.255       .  S
C19          O25   1.263       .  A
C19          O27   1.259       .  A
C19        C1286   1.481       .  S
O20          C28   1.256       .  A
O21          C28   1.258       .  A
C22          O29   1.255       .  A
C22          O23   1.261       .  A
C22        C1592   1.475       .  S
C24          O26   1.261       .  A
C24          O30   1.265       .  A
C24        C1304   1.464       .  S
C28        C1358   1.462       .  S
In31         O33   2.237       .  S
In31         O34   2.235       .  S
In31         O42   2.247       .  S
In31         O36   2.309       .  S
In31         O38   2.293       .  S
In31         O39   2.209       .  S
In31         O40   2.258       .  S
In31         O43   2.275       .  S
C32          O38   1.261       .  A
C32          O40   1.257       .  A
C32        C1250   1.484       .  S
O33          C41   1.261       .  A
O34          C41   1.259       .  A
C35          O42   1.254       .  A
C35          O36   1.266       .  A
C35        C1541   1.488       .  S
C37          O39   1.259       .  A
C37          O43   1.266       .  A
C37        C1343   1.468       .  S
C41        C1268   1.459       .  S
In44         O46   2.224       .  S
In44         O47   2.245       .  S
In44         O55   2.280       .  S
In44         O49   2.237       .  S
In44         O51   2.294       .  S
In44         O52   2.217       .  S
In44         O53   2.231       .  S
In44         O56   2.264       .  S
C45          O51   1.266       .  A
C45          O53   1.254       .  A
C45        C1610   1.477       .  S
O46          C54   1.258       .  A
O47          C54   1.258       .  A
C48          O55   1.262       .  A
C48          O49   1.256       .  A
C48        C1232   1.477       .  S
C50          O52   1.259       .  A
C50          O56   1.265       .  A
C50        C1307   1.466       .  S
C54        C1271   1.456       .  S
In57         O59   2.226       .  S
In57         O60   2.233       .  S
In57         O68   2.264       .  S
In57         O62   2.245       .  S
In57         O64   2.295       .  S
In57         O65   2.208       .  S
In57         O66   2.215       .  S
In57         O69   2.262       .  S
C58          O64   1.266       .  A
C58          O66   1.255       .  A
C58        C1484   1.475       .  S
O59          C67   1.260       .  A
O60          C67   1.261       .  A
C61          O68   1.263       .  A
C61          O62   1.259       .  A
C61        C1253   1.476       .  S
C63          O65   1.259       .  A
C63          O69   1.265       .  A
C63        C1199   1.463       .  S
C67        C1217   1.458       .  S
In70         O72   2.254       .  S
In70         O73   2.235       .  S
In70         O81   2.240       .  S
In70         O75   2.306       .  S
In70         O77   2.261       .  S
In70         O78   2.269       .  S
In70         O79   2.273       .  S
In70         O82   2.254       .  S
C71          O77   1.258       .  A
C71          O79   1.261       .  A
C71        C1235   1.479       .  S
O72          C80   1.260       .  A
O73          C80   1.258       .  A
C74          O81   1.254       .  A
C74          O75   1.265       .  A
C74        C1397   1.483       .  S
C76          O78   1.263       .  A
C76          O82   1.260       .  A
C76        C1178   1.478       .  S
C80        C1214   1.462       .  S
In83         O85   2.224       .  S
In83         O86   2.249       .  S
In83         O94   2.293       .  S
In83         O88   2.256       .  S
In83         O90   2.225       .  S
In83         O91   2.211       .  S
In83         O92   2.295       .  S
In83         O95   2.257       .  S
C84          O90   1.255       .  A
C84          O92   1.267       .  A
C84        C1325   1.478       .  S
O85          C93   1.257       .  A
O86          C93   1.260       .  A
C87          O94   1.262       .  A
C87          O88   1.256       .  A
C87        C1469   1.485       .  S
C89          O91   1.260       .  A
C89          O95   1.266       .  A
C89        C1196   1.465       .  S
C93        C1163   1.459       .  S
In96         O98   2.248       .  S
In96         O99   2.231       .  S
In96        O107   2.248       .  S
In96        O101   2.285       .  S
In96        O103   2.229       .  S
In96        O104   2.287       .  S
In96        O105   2.326       .  S
In96        O108   2.241       .  S
C97         O103   1.251       .  A
C97         O105   1.266       .  A
C97        C1412   1.485       .  S
O98         C106   1.262       .  A
O99         C106   1.259       .  A
C100        O107   1.256       .  A
C100        O101   1.261       .  A
C100       C1289   1.479       .  S
C102        O104   1.266       .  A
C102        O108   1.258       .  A
C102       C1181   1.480       .  S
C106       C1160   1.462       .  S
C109       C1091   1.545       .  S
C109       C1106   1.554       .  S
C109       C1124   1.534   1_554  S
C109       C1142   1.540       .  S
C110       C1052   1.537   1_556  S
C110       C1070   1.541       .  S
C110       C1109   1.557   1_556  S
C110       C1379   1.549       .  S
In111       O113   2.247       .  S
In111       O114   2.234       .  S
In111       O122   2.229       .  S
In111       O116   2.298       .  S
In111       O118   2.235       .  S
In111       O119   2.218       .  S
In111       O120   2.297       .  S
In111       O123   2.273       .  S
C112        O118   1.256       .  A
C112        O120   1.264       .  A
C112        C998   1.480       .  S
O113        C121   1.258       .  A
O114        C121   1.257       .  A
C115        O122   1.254       .  A
C115        O116   1.262       .  A
C115        C980   1.476       .  S
C117        O119   1.259       .  A
C117        O123   1.267       .  A
C117       C1016   1.472       .  S
C121       C1034   1.460       .  S
In124       O126   2.260       .  S
In124       O127   2.230       .  S
In124       O135   2.301       .  S
In124       O129   2.216       .  S
In124       O131   2.247       .  S
In124       O132   2.240       .  S
In124       O133   2.275       .  S
In124       O136   2.222       .  S
C125        O131   1.258       .  A
C125        O133   1.262       .  A
C125        C962   1.479       .  S
O126        C134   1.265       .  A
O127        C134   1.260       .  A
C128        O135   1.268       .  A
C128        O129   1.254       .  A
C128        C944   1.478       .  S
C130        O132   1.261       .  A
C130        O136   1.258       .  A
C130        C926   1.458       .  S
C134       C1019   1.471       .  S
In137       O139   2.221       .  S
In137       O140   2.268       .  S
In137       O148   2.271       .  S
In137       O142   2.255       .  S
In137       O144   2.230       .  S
In137       O145   2.252       .  S
In137       O146   2.295       .  S
In137       O149   2.235       .  S
C138        O144   1.254       .  A
C138        O146   1.264       .  A
C138       C1127   1.477       .  S
O139        C147   1.259       .  A
O140        C147   1.265       .  A
C141        O148   1.261       .  A
C141        O142   1.259       .  A
C141        C965   1.479       .  S
C143        O145   1.259       .  A
C143        O149   1.259       .  A
C143        C908   1.464       .  S
C147        C890   1.470       .  S
In150       O152   2.241       .  S
In150       O153   2.257       .  S
In150       O161   2.297       .  S
In150       O155   2.255       .  S
In150       O157   2.313       .  S
In150       O158   2.267       .  S
In150       O159   2.236       .  S
In150       O162   2.226       .  S
C151        O157   1.264       .  A
C151        O159   1.253       .  A
C151       C1145   1.485       .  S
O152        C160   1.259       .  A
O153        C160   1.259       .  A
C154        O161   1.263       .  A
C154        O155   1.258       .  A
C154       C1001   1.487       .  S
C156        O158   1.265       .  A
C156        O162   1.259       .  A
C156        C893   1.470       .  S
C160        C875   1.466       .  S
C163        C800   1.552   1_556  S
C163        C818   1.550   1_556  S
C163        C839   1.538   1_556  S
C163        C854   1.545       .  S
C164        C821   1.549       .  S
C164        C947   1.545   1_554  S
C164        C983   1.539       .  S
C164       C1505   1.556       .  S
In165       O167   2.229       .  S
In165       O168   2.265       .  S
In165       O176   2.283       .  S
In165       O170   2.232       .  S
In165       O172   2.281       .  S
In165       O173   2.240       .  S
In165       O174   2.238       .  S
In165       O177   2.223       .  S
C166        O172   1.265       .  A
C166        O174   1.255       .  A
C166        C857   1.476       .  S
O167        C175   1.260       .  A
O168        C175   1.264       .  A
C169        O176   1.261       .  A
C169        O170   1.257       .  A
C169        C767   1.473       .  S
C171        O173   1.260       .  A
C171        O177   1.258       .  A
C171        C929   1.458       .  S
C175        C785   1.470       .  S
In178       O180   2.265       .  S
In178       O181   2.228       .  S
In178       O189   2.290       .  S
In178       O183   2.236       .  S
In178       O185   2.229       .  S
In178       O186   2.261       .  S
In178       O187   2.302       .  S
In178       O190   2.223       .  S
C179        O185   1.253       .  A
C179        O187   1.262       .  A
C179        C836   1.476       .  S
O180        C188   1.259       .  A
O181        C188   1.254       .  A
C182        O189   1.261       .  A
C182        O183   1.255       .  A
C182        C749   1.475       .  S
C184        O186   1.265       .  A
C184        O190   1.261       .  A
C184        C782   1.470       .  S
C188       C1037   1.462       .  S
In191       O193   2.258       .  S
In191       O194   2.251       .  S
In191       O202   2.222       .  S
In191       O196   2.302       .  S
In191       O198   2.274       .  S
In191       O199   2.224       .  S
In191       O200   2.244       .  S
In191       O203   2.255       .  S
C192        O198   1.260       .  A
C192        O200   1.256       .  A
C192        C746   1.473       .  S
O193        C201   1.259       .  A
O194        C201   1.256       .  A
C195        O202   1.254       .  A
C195        O196   1.262       .  A
C195       C1055   1.476       .  S
C197        O199   1.262       .  A
C197        O203   1.265       .  A
C197        C728   1.469       .  S
C201        C872   1.467       .  S
In204       O206   2.238       .  S
In204       O207   2.252       .  S
In204       O215   2.268       .  S
In204       O209   2.247       .  S
In204       O211   2.220       .  S
In204       O212   2.214       .  S
In204       O213   2.303       .  S
In204       O216   2.283       .  S
C205        O211   1.253       .  A
C205        O213   1.266       .  A
C205       C1073   1.478       .  S
O206        C214   1.258       .  A
O207        C214   1.257       .  A
C208        O215   1.260       .  A
C208        O209   1.259       .  A
C208        C764   1.474       .  S
C210        O212   1.258       .  A
C210        O216   1.265       .  A
C210        C731   1.472       .  S
C214        C911   1.462       .  S
C217        C677   1.541   1_556  S
C217        C695   1.547   1_556  S
C217        C713   1.545       .  S
C217        C803   1.552   1_556  S
C218        C641   1.558   1_556  S
C218        C659   1.538       .  S
C218        C674   1.545       .  S
C218       C1556   1.548       .  S
In219       O221   2.264       .  S
In219       O222   2.203       .  S
In219       O230   2.250       .  S
In219       O224   2.273       .  S
In219       O226   2.293       .  S
In219       O227   2.241       .  S
In219       O228   2.227       .  S
In219       O231   2.237       .  S
C220        O226   1.265       .  A
C220        O228   1.254       .  A
C220        C566   1.477       .  S
O221        C229   1.265       .  A
O222        C229   1.259       .  A
C223        O230   1.260       .  A
C223        O224   1.260       .  A
C223        C587   1.478       .  S
C225        O227   1.260       .  A
C225        O231   1.260       .  A
C225        C620   1.463       .  S
C229        C605   1.464       .  S
In232       O234   2.247       .  S
In232       O235   2.225       .  S
In232       O243   2.265       .  S
In232       O237   2.268       .  S
In232       O239   2.321       .  S
In232       O240   2.220       .  S
In232       O241   2.236       .  S
In232       O244   2.266       .  S
C233        O239   1.265       .  A
C233        O241   1.253       .  A
C233        C530   1.487       .  S
O234        C242   1.261       .  A
O235        C242   1.258       .  A
C236        O243   1.256       .  A
C236        O237   1.260       .  A
C236        C548   1.477       .  S
C238        O240   1.259       .  A
C238        O244   1.266       .  A
C238        C602   1.468       .  S
C242        C512   1.460       .  S
In245       O247   2.237       .  S
In245       O248   2.234       .  S
In245       O256   2.285       .  S
In245       O250   2.238       .  S
In245       O252   2.270       .  S
In245       O253   2.212       .  S
In245       O254   2.255       .  S
In245       O257   2.278       .  S
C246        O252   1.258       .  A
C246        O254   1.257       .  A
C246        C551   1.476       .  S
O247        C255   1.260       .  A
O248        C255   1.261       .  A
C249        O256   1.264       .  A
C249        O250   1.254       .  A
C249        C656   1.475       .  S
C251        O253   1.259       .  A
C251        O257   1.265       .  A
C251        C479   1.471       .  S
C255        C497   1.462       .  S
In258       O260   2.270       .  S
In258       O261   2.215       .  S
In258       O269   2.275       .  S
In258       O263   2.268       .  S
In258       O265   2.278       .  S
In258       O266   2.240       .  S
In258       O267   2.258       .  S
In258       O270   2.254       .  S
C259        O265   1.260       .  A
C259        O267   1.257       .  A
C259        C584   1.479       .  S
O260        C268   1.266       .  A
O261        C268   1.260       .  A
C262        O269   1.255       .  A
C262        O263   1.262       .  A
C262        C638   1.480       .  S
C264        O266   1.258       .  A
C264        O270   1.260       .  A
C264        C458   1.464       .  S
C268        C476   1.471       .  S
C271        C443   1.558       .  S
C271        C533   1.560   1_554  S
C271        C569   1.549       .  S
C271       C1088   1.546       .  S
C272        C404   1.565       .  S
C272        C425   1.558   1_554  S
C272        C440   1.564       .  S
C272       C1430   1.550       .  S
In273       O275   2.259       .  S
In273       O276   2.230       .  S
In273       O284   2.234       .  S
In273       O278   2.298       .  S
In273       O280   2.280       .  S
In273       O281   2.232       .  S
In273       O282   2.245       .  S
In273       O285   2.258       .  S
C274        O280   1.262       .  A
C274        O282   1.257       .  A
C274        C368   1.478       .  S
O275        C283   1.261       .  A
O276        C283   1.257       .  A
C277        O284   1.254       .  A
C277        O278   1.263       .  A
C277        C422   1.478       .  S
C279        O281   1.259       .  A
C279        O285   1.264       .  A
C279        C389   1.470       .  S
C283        C515   1.464       .  S
In286       O288   2.254       .  S
In286       O289   2.219       .  S
In286       O297   2.249       .  S
In286       O291   2.282       .  S
In286       O293   2.312       .  S
In286       O294   2.231       .  S
In286       O295   2.220       .  S
In286       O298   2.258       .  S
C287        O293   1.268       .  A
C287        O295   1.255       .  A
C287        C407   1.484       .  S
O288        C296   1.261       .  A
O289        C296   1.258       .  A
C290        O297   1.257       .  A
C290        O291   1.264       .  A
C290        C350   1.481       .  S
C292        O294   1.260       .  A
C292        O298   1.266       .  A
C292        C386   1.471       .  S
C296        C623   1.461       .  S
In299       O301   2.211       .  S
In299       O302   2.255       .  S
In299       O310   2.266       .  S
In299       O304   2.259       .  S
In299       O306   2.271       .  S
In299       O307   2.252       .  S
In299       O308   2.250       .  S
In299       O311   2.234       .  S
C300        O306   1.263       .  A
C300        O308   1.256       .  A
C300        C692   1.474       .  S
O301        C309   1.262       .  A
O302        C309   1.267       .  A
C303        O310   1.259       .  A
C303        O304   1.258       .  A
C303        C353   1.477       .  S
C305        O307   1.257       .  A
C305        O311   1.255       .  A
C305        C461   1.460       .  S
C309        C332   1.466       .  S
In312       O314   2.235       .  S
In312       O315   2.236       .  S
In312       O323   2.279       .  S
In312       O317   2.242       .  S
In312       O319   2.287       .  S
In312       O320   2.262       .  S
In312       O321   2.241       .  S
In312       O324   2.193       .  S
C313        O319   1.265       .  A
C313        O321   1.254       .  A
C313        C710   1.478       .  S
O314        C322   1.261       .  A
O315        C322   1.260       .  A
C316        O323   1.263       .  A
C316        O317   1.257       .  A
C316        C371   1.478       .  S
C318        O320   1.265       .  A
C318        O324   1.259       .  A
C318        C335   1.460       .  S
C322        C494   1.462       .  S
C325        C330   1.385       .  A
C325        C326   1.408       .  A
C325        N331   1.346       .  A
C326        C327   1.406       .  A
C326        H337   1.082       .  S
C327        C336   1.385       .  A
C327        C328   1.385       .  A
C328        C329   1.395       .  A
C328        N334   1.334       .  A
C329        C330   1.394       .  A
C329        H338   1.083       .  S
C330        C333   1.369       .  A
N331        C332   1.357       .  A
N331        H341   1.045       .  S
C332        C333   1.391       .  A
C333        H339   1.083       .  S
N334        C335   1.350       .  A
N334        H342   1.045       .  S
C335        C336   1.397       .  A
C336        H340   1.082       .  S
C343        C348   1.384       .  A
C343        C344   1.407   1_455  A
C343        N349   1.346       .  A
C344        C345   1.406       .  A
C344        H355   1.082       .  S
C345        C354   1.383       .  A
C345        C346   1.384       .  A
C346        C347   1.407       .  A
C346        N352   1.346       .  A
C347        C348   1.406   1_655  A
C347        H356   1.082       .  S
C348        C351   1.385       .  A
N349        C350   1.358       .  A
N349        H359   1.045       .  S
C350        C351   1.397       .  A
C351        H357   1.082       .  S
N352        C353   1.357       .  A
N352        H360   1.045       .  S
C353        C354   1.397       .  A
C354        H358   1.083       .  S
C361        C366   1.385       .  A
C361        C362   1.408   1_455  A
C361        N367   1.348       .  A
C362        C363   1.407       .  A
C362        H373   1.082       .  S
C363        C372   1.385       .  A
C363        C364   1.385       .  A
C364        C365   1.404       .  A
C364        N370   1.344       .  A
C365        C366   1.403   1_655  A
C365        H374   1.083       .  S
C366        C369   1.379       .  A
N367        C368   1.357       .  A
N367        H377   1.045       .  S
C368        C369   1.396       .  A
C369        H375   1.083       .  S
N370        C371   1.356       .  A
N370        H378   1.045       .  S
C371        C372   1.397       .  A
C372        H376   1.082       .  S
C379        C384   1.385       .  A
C379        C380   1.404       .  A
C379        N385   1.345       .  A
C380        C381   1.403       .  A
C380        H391   1.082       .  S
C381        C390   1.380       .  A
C381        C382   1.385       .  A
C382        C383   1.404       .  A
C382        N388   1.343       .  A
C383        C384   1.403       .  A
C383        H392   1.083       .  S
C384        C387   1.378       .  A
N385        C386   1.355       .  A
N385        H395   1.045       .  S
C386        C387   1.396       .  A
C387        H393   1.083       .  S
N388        C389   1.356       .  A
N388        H396   1.045       .  S
C389        C390   1.394       .  A
C390        H394   1.082       .  S
C397        C402   1.376       .  A
C397        C398   1.414       .  A
C397        N403   1.350       .  A
C398        C399   1.412       .  A
C398        H409   1.082       .  S
C399        C408   1.393       .  A
C399        C400   1.383       .  A
C400        C401   1.404       .  A
C400        N406   1.341       .  A
C401        C402   1.402       .  A
C401        H410   1.083       .  S
C402        C405   1.376       .  A
N403        C404   1.368       .  A
N403        H413   1.031       .  S
C404        C405   1.408       .  A
C405        H411   1.080       .  S
N406        C407   1.356       .  A
N406        H414   1.045       .  S
C407        C408   1.401       .  A
C408        H412   1.082       .  S
C415        C420   1.384       .  A
C415        C416   1.400       .  A
C415        N421   1.341       .  A
C416        C417   1.399       .  A
C416        H427   1.083       .  S
C417        C426   1.371       .  A
C417        C418   1.376       .  A
C418        C419   1.412       .  A
C418        N424   1.349       .  A
C419        C420   1.411       .  A
C419        H428   1.082       .  S
C420        C423   1.389       .  A
N421        C422   1.355       .  A
N421        H431   1.045       .  S
C422        C423   1.400       .  A
C423        H429   1.082       .  S
N424        C425   1.367       .  A
N424        H432   1.037       .  S
C425        C426   1.407       .  A
C426        H430   1.079       .  S
C433        C438   1.379       .  A
C433        C434   1.420       .  A
C433        N439   1.361       .  A
C434        C435   1.421       .  A
C434        H445   1.082       .  S
C435        C444   1.396       .  A
C435        C436   1.380       .  A
C436        C437   1.402       .  A
C436        N442   1.344       .  A
C437        C438   1.403       .  A
C437        H446   1.083       .  S
C438        C441   1.371       .  A
N439        C440   1.368       .  A
N439        H449   1.044       .  S
C440        C441   1.407       .  A
C441        H447   1.083       .  S
N442        C443   1.361       .  A
N442        H450   1.045       .  S
C443        C444   1.412       .  A
C444        H448   1.082       .  S
C451        C456   1.386       .  A
C451        C452   1.402       .  A
C451        N457   1.341       .  A
C452        C453   1.400       .  A
C452        H463   1.083       .  S
C453        C462   1.377       .  A
C453        C454   1.386       .  A
C454        C455   1.400       .  A
C454        N460   1.340       .  A
C455        C456   1.399       .  A
C455        H464   1.083       .  S
C456        C459   1.376       .  A
N457        C458   1.354       .  A
N457        H467   1.045       .  S
C458        C459   1.392       .  A
C459        H465   1.082       .  S
N460        C461   1.353       .  A
N460        H468   1.045       .  S
C461        C462   1.392       .  A
C462        H466   1.083       .  S
C469        C474   1.385       .  A
C469        C470   1.397       .  A
C469        N475   1.338       .  A
C470        C471   1.396       .  A
C470        H481   1.083       .  S
C471        C480   1.369       .  A
C471        C472   1.384       .  A
C472        C473   1.411       .  A
C472        N478   1.351       .  A
C473        C474   1.411       .  A
C473        H482   1.082       .  S
C474        C477   1.387       .  A
N475        C476   1.352       .  A
N475        H485   1.045       .  S
C476        C477   1.399       .  A
C477        H483   1.082       .  S
N478        C479   1.359       .  A
N478        H486   1.044       .  S
C479        C480   1.390       .  A
C480        H484   1.083       .  S
C487        C492   1.386       .  A
C487        C488   1.400       .  A
C487        N493   1.340       .  A
C488        C489   1.399       .  A
C488        H499   1.083       .  S
C489        C498   1.374       .  A
C489        C490   1.386       .  A
C490        C491   1.402       .  A
C490        N496   1.342       .  A
C491        C492   1.401       .  A
C491        H500   1.083       .  S
C492        C495   1.377       .  A
N493        C494   1.352       .  A
N493        H503   1.045       .  S
C494        C495   1.394       .  A
C495        H501   1.083       .  S
N496        C497   1.354       .  A
N496        H504   1.045       .  S
C497        C498   1.391       .  A
C498        H502   1.083       .  S
C505        C510   1.386       .  A
C505        C506   1.399       .  A
C505        N511   1.339       .  A
C506        C507   1.398       .  A
C506        H517   1.083       .  S
C507        C516   1.373       .  A
C507        C508   1.385       .  A
C508        C509   1.403       .  A
C508        N514   1.344       .  A
C509        C510   1.402       .  A
C509        H518   1.082       .  S
C510        C513   1.378       .  A
N511        C512   1.353       .  A
N511        H521   1.045       .  S
C512        C513   1.393       .  A
C513        H519   1.083       .  S
N514        C515   1.355       .  A
N514        H522   1.045       .  S
C515        C516   1.392       .  A
C516        H520   1.083       .  S
C523        C528   1.383       .  A
C523        C524   1.405       .  A
C523        N529   1.343       .  A
C524        C525   1.404       .  A
C524        H535   1.082       .  S
C525        C534   1.379       .  A
C525        C526   1.377       .  A
C526        C527   1.415       .  A
C526        N532   1.350       .  A
C527        C528   1.413       .  A
C527        H536   1.082       .  S
C528        C531   1.394       .  A
N529        C530   1.357       .  A
N529        H539   1.045       .  S
C530        C531   1.402       .  A
C531        H537   1.082       .  S
N532        C533   1.368       .  A
N532        H540   1.043       .  S
C533        C534   1.408       .  A
C534        H538   1.079       .  S
C541        C546   1.384       .  A
C541        C542   1.405   1_455  A
C541        N547   1.347       .  A
C542        C543   1.405       .  A
C542        H553   1.082       .  S
C543        C552   1.379       .  A
C543        C544   1.385       .  A
C544        C545   1.406       .  A
C544        N550   1.347       .  A
C545        C546   1.406   1_655  A
C545        H554   1.082       .  S
C546        C549   1.381       .  A
N547        C548   1.357       .  A
N547        H557   1.045       .  S
C548        C549   1.396       .  A
C549        H555   1.082       .  S
N550        C551   1.357       .  A
N550        H558   1.045       .  S
C551        C552   1.395       .  A
C552        H556   1.082       .  S
C559        C564   1.385       .  A
C559        C560   1.405       .  A
C559        N565   1.349       .  A
C560        C561   1.406       .  A
C560        H571   1.082       .  S
C561        C570   1.375       .  A
C561        C562   1.379       .  A
C562        C563   1.404       .  A
C562        N568   1.346       .  A
C563        C564   1.405       .  A
C563        H572   1.082       .  S
C564        C567   1.376       .  A
N565        C566   1.356       .  A
N565        H575   1.045       .  S
C566        C567   1.396       .  A
C567        H573   1.083       .  S
N568        C569   1.363       .  A
N568        H576   1.043       .  S
C569        C570   1.407       .  A
C570        H574   1.076       .  S
C577        C582   1.384       .  A
C577        C578   1.404       .  A
C577        N583   1.345       .  A
C578        C579   1.403   1_655  A
C578        H589   1.082       .  S
C579        C588   1.378       .  A
C579        C580   1.384       .  A
C580        C581   1.409   1_455  A
C580        N586   1.350       .  A
C581        C582   1.409       .  A
C581        H590   1.082       .  S
C582        C585   1.385       .  A
N583        C584   1.356       .  A
N583        H593   1.045       .  S
C584        C585   1.398       .  A
C585        H591   1.082       .  S
N586        C587   1.359       .  A
N586        H594   1.045       .  S
C587        C588   1.395       .  A
C588        H592   1.082       .  S
C595        C600   1.385       .  A
C595        C596   1.398       .  A
C595        N601   1.339       .  A
C596        C597   1.397       .  A
C596        H607   1.083       .  S
C597        C606   1.369       .  A
C597        C598   1.385       .  A
C598        C599   1.406       .  A
C598        N604   1.347       .  A
C599        C600   1.406       .  A
C599        H608   1.082       .  S
C600        C603   1.382       .  A
N601        C602   1.354       .  A
N601        H611   1.045       .  S
C602        C603   1.396       .  A
C603        H609   1.082       .  S
N604        C605   1.356       .  A
N604        H612   1.045       .  S
C605        C606   1.391       .  A
C606        H610   1.083       .  S
C613        C618   1.386       .  A
C613        C614   1.403       .  A
C613        N619   1.342       .  A
C614        C615   1.401       .  A
C614        H625   1.082       .  S
C615        C624   1.379       .  A
C615        C616   1.386       .  A
C616        C617   1.400       .  A
C616        N622   1.339       .  A
C617        C618   1.398       .  A
C617        H626   1.083       .  S
C618        C621   1.376       .  A
N619        C620   1.354       .  A
N619        H629   1.045       .  S
C620        C621   1.392       .  A
C621        H627   1.083       .  S
N622        C623   1.353       .  A
N622        H630   1.045       .  S
C623        C624   1.394       .  A
C624        H628   1.083       .  S
C631        C636   1.382       .  A
C631        C632   1.418       .  A
C631        N637   1.352       .  A
C632        C633   1.416       .  A
C632        H643   1.082       .  S
C633        C642   1.395       .  A
C633        C634   1.378       .  A
C634        C635   1.399       .  A
C634        N640   1.335       .  A
C635        C636   1.395       .  A
C635        H644   1.083       .  S
C636        C639   1.374       .  A
N637        C638   1.363       .  A
N637        H647   1.044       .  S
C638        C639   1.390       .  A
C639        H645   1.083       .  S
N640        C641   1.362       .  A
N640        H648   1.041   1_554  S
C641        C642   1.412       .  A
C642        H646   1.082       .  S
C649        C654   1.384       .  A
C649        C650   1.406       .  A
C649        N655   1.347       .  A
C650        C651   1.406       .  A
C650        H661   1.082       .  S
C651        C660   1.381       .  A
C651        C652   1.383       .  A
C652        C653   1.405       .  A
C652        N658   1.343       .  A
C653        C654   1.402       .  A
C653        H662   1.083       .  S
C654        C657   1.378       .  A
N655        C656   1.355       .  A
N655        H665   1.044       .  S
C656        C657   1.396       .  A
C657        H663   1.083       .  S
N658        C659   1.362       .  A
N658        H666   1.044       .  S
C659        C660   1.404       .  A
C660        H664   1.082       .  S
C667        C672   1.380   1_554  A
C667        C668   1.406       .  A
C667        N673   1.346       .  A
C668        C669   1.405       .  A
C668        H679   1.082       .  S
C669        C678   1.380       .  A
C669        C670   1.381   1_554  A
C670        C671   1.407       .  A
C670        N676   1.346       .  A
C671        C672   1.408       .  A
C671        H680   1.082       .  S
C672        C675   1.380       .  A
N673        C674   1.363   1_554  A
N673        H683   1.043       .  S
C674        C675   1.407       .  A
C675        H681   1.079       .  S
N676        C677   1.362   1_556  A
N676        H684   1.045       .  S
C677        C678   1.404       .  A
C678        H682   1.082       .  S
C685        C690   1.383       .  A
C685        C686   1.412       .  A
C685        N691   1.347       .  A
C686        C687   1.409       .  A
C686        H697   1.082       .  S
C687        C696   1.391       .  A
C687        C688   1.380       .  A
C688        C689   1.403       .  A
C688        N694   1.337       .  A
C689        C690   1.400       .  A
C689        H698   1.083       .  S
C690        C693   1.380       .  A
N691        C692   1.359       .  A
N691        H701   1.045       .  S
C692        C693   1.394       .  A
C693        H699   1.083       .  S
N694        C695   1.363       .  A
N694        H702   1.043   1_554  S
C695        C696   1.405       .  A
C696        H700   1.082       .  S
C703        C708   1.384       .  A
C703        C704   1.404       .  A
C703        N709   1.347       .  A
C704        C705   1.406       .  A
C704        H715   1.082       .  S
C705        C714   1.377       .  A
C705        C706   1.381       .  A
C706        C707   1.407       .  A
C706        N712   1.346       .  A
C707        C708   1.406       .  A
C707        H716   1.083       .  S
C708        C711   1.380       .  A
N709        C710   1.355       .  A
N709        H719   1.044       .  S
C710        C711   1.398       .  A
C711        H717   1.083       .  S
N712        C713   1.365       .  A
N712        H720   1.044       .  S
C713        C714   1.406       .  A
C714        H718   1.078       .  S
C721        C726   1.384       .  A
C721        C722   1.409       .  A
C721        N727   1.347       .  A
C722        C723   1.408       .  A
C722        H733   1.082       .  S
C723        C732   1.387       .  A
C723        C724   1.384       .  A
C724        C725   1.400       .  A
C724        N730   1.339       .  A
C725        C726   1.398       .  A
C725        H734   1.083       .  S
C726        C729   1.374       .  A
N727        C728   1.357       .  A
N727        H737   1.045       .  S
C728        C729   1.393       .  A
C729        H735   1.083       .  S
N730        C731   1.353       .  A
N730        H738   1.045       .  S
C731        C732   1.399       .  A
C732        H736   1.082       .  S
C739        C744   1.385       .  A
C739        C740   1.401   1_565  A
C739        N745   1.343       .  A
C740        C741   1.400       .  A
C740        H751   1.083       .  S
C741        C750   1.374       .  A
C741        C742   1.384       .  A
C742        C743   1.409       .  A
C742        N748   1.350       .  A
C743        C744   1.409   1_545  A
C743        H752   1.082       .  S
C744        C747   1.384       .  A
N745        C746   1.354       .  A
N745        H755   1.045       .  S
C746        C747   1.398       .  A
C747        H753   1.082       .  S
N748        C749   1.358       .  A
N748        H756   1.045       .  S
C749        C750   1.393       .  A
C750        H754   1.083       .  S
C757        C762   1.385       .  A
C757        C758   1.400   1_565  A
C757        N763   1.342       .  A
C758        C759   1.400       .  A
C758        H769   1.082       .  S
C759        C768   1.373       .  A
C759        C760   1.384       .  A
C760        C761   1.410       .  A
C760        N766   1.350       .  A
C761        C762   1.410   1_545  A
C761        H770   1.082       .  S
C762        C765   1.385       .  A
N763        C764   1.354       .  A
N763        H773   1.045       .  S
C764        C765   1.399       .  A
C765        H771   1.082       .  S
N766        C767   1.359       .  A
N766        H774   1.045       .  S
C767        C768   1.392       .  A
C768        H772   1.083       .  S
C775        C780   1.384       .  A
C775        C776   1.408       .  A
C775        N781   1.347       .  A
C776        C777   1.407       .  A
C776        H787   1.082       .  S
C777        C786   1.385       .  A
C777        C778   1.385       .  A
C778        C779   1.400       .  A
C778        N784   1.341       .  A
C779        C780   1.399       .  A
C779        H788   1.082       .  S
C780        C783   1.374       .  A
N781        C782   1.357       .  A
N781        H791   1.045       .  S
C782        C783   1.393       .  A
C783        H789   1.083       .  S
N784        C785   1.353       .  A
N784        H792   1.045       .  S
C785        C786   1.398       .  A
C786        H790   1.082       .  S
C793        C798   1.379       .  A
C793        C794   1.410       .  A
C793        N799   1.349       .  A
C794        C795   1.410       .  A
C794        H805   1.082       .  S
C795        C804   1.384       .  A
C795        C796   1.379       .  A
C796        C797   1.411       .  A
C796        N802   1.349       .  A
C797        C798   1.410       .  A
C797        H806   1.082       .  S
C798        C801   1.383       .  A
N799        C800   1.364       .  A
N799        H809   1.041       .  S
C800        C801   1.410       .  A
C801        H807   1.081       .  S
N802        C803   1.366       .  A
N802        H810   1.043       .  S
C803        C804   1.406       .  A
C804        H808   1.079       .  S
C811        C816   1.381   1_554  A
C811        C812   1.403       .  A
C811        N817   1.342       .  A
C812        C813   1.402       .  A
C812        H823   1.083       .  S
C813        C822   1.374       .  A
C813        C814   1.381   1_554  A
C814        C815   1.410       .  A
C814        N820   1.350       .  A
C815        C816   1.410       .  A
C815        H824   1.082       .  S
C816        C819   1.385       .  A
N817        C818   1.362       .  A
N817        H827   1.044       .  S
C818        C819   1.406   1_554  A
C819        H825   1.082       .  S
N820        C821   1.363   1_556  A
N820        H828   1.045       .  S
C821        C822   1.405       .  A
C822        H826   1.082       .  S
C829        C834   1.384       .  A
C829        C830   1.397       .  A
C829        N835   1.339       .  A
C830        C831   1.397       .  A
C830        H841   1.083       .  S
C831        C840   1.365       .  A
C831        C832   1.382       .  A
C832        C833   1.414       .  A
C832        N838   1.355       .  A
C833        C834   1.415       .  A
C833        H842   1.082       .  S
C834        C837   1.391       .  A
N835        C836   1.353       .  A
N835        H845   1.045       .  S
C836        C837   1.402       .  A
C837        H843   1.082       .  S
N838        C839   1.363       .  A
N838        H846   1.043       .  S
C839        C840   1.400       .  A
C840        H844   1.083       .  S
C847        C852   1.379       .  A
C847        C848   1.406       .  A
C847        N853   1.342       .  A
C848        C849   1.402       .  A
C848        H859   1.082       .  S
C849        C858   1.382       .  A
C849        C850   1.383       .  A
C850        C851   1.407       .  A
C850        N856   1.345       .  A
C851        C852   1.406       .  A
C851        H860   1.082       .  S
C852        C855   1.381       .  A
N853        C854   1.363       .  A
N853        H863   1.041       .  S
C854        C855   1.409       .  A
C855        H861   1.080       .  S
N856        C857   1.358       .  A
N856        H864   1.045       .  S
C857        C858   1.394       .  A
C858        H862   1.082       .  S
C865        C870   1.385       .  A
C865        C866   1.405       .  A
C865        N871   1.343       .  A
C866        C867   1.404       .  A
C866        H877   1.082       .  S
C867        C876   1.381       .  A
C867        C868   1.385       .  A
C868        C869   1.402       .  A
C868        N874   1.341       .  A
C869        C870   1.400       .  A
C869        H878   1.082       .  S
C870        C873   1.377       .  A
N871        C872   1.356       .  A
N871        H881   1.045       .  S
C872        C873   1.393       .  A
C873        H879   1.082       .  S
N874        C875   1.354       .  A
N874        H882   1.045       .  S
C875        C876   1.396       .  A
C876        H880   1.083       .  S
C883        C888   1.385       .  A
C883        C884   1.406       .  A
C883        N889   1.347       .  A
C884        C885   1.406       .  A
C884        H895   1.082       .  S
C885        C894   1.383       .  A
C885        C886   1.385       .  A
C886        C887   1.401       .  A
C886        N892   1.341       .  A
C887        C888   1.400       .  A
C887        H896   1.083       .  S
C888        C891   1.374       .  A
N889        C890   1.356       .  A
N889        H899   1.045       .  S
C890        C891   1.393       .  A
C891        H897   1.083       .  S
N892        C893   1.354       .  A
N892        H900   1.045       .  S
C893        C894   1.396       .  A
C894        H898   1.082       .  S
C901        C906   1.386       .  A
C901        C902   1.399       .  A
C901        N907   1.340       .  A
C902        C903   1.397       .  A
C902        H913   1.083       .  S
C903        C912   1.373       .  A
C903        C904   1.385       .  A
C904        C905   1.404       .  A
C904        N910   1.344       .  A
C905        C906   1.404       .  A
C905        H914   1.083       .  S
C906        C909   1.379       .  A
N907        C908   1.352       .  A
N907        H917   1.045       .  S
C908        C909   1.395       .  A
C909        H915   1.083       .  S
N910        C911   1.355       .  A
N910        H918   1.045       .  S
C911        C912   1.390       .  A
C912        H916   1.083       .  S
C919        C924   1.386       .  A
C919        C920   1.398       .  A
C919        N925   1.339       .  A
C920        C921   1.397       .  A
C920        H931   1.083       .  S
C921        C930   1.372       .  A
C921        C922   1.386       .  A
C922        C923   1.401       .  A
C922        N928   1.342       .  A
C923        C924   1.400       .  A
C923        H932   1.082       .  S
C924        C927   1.376       .  A
N925        C926   1.352       .  A
N925        H935   1.045       .  S
C926        C927   1.392       .  A
C927        H933   1.082       .  S
N928        C929   1.353       .  A
N928        H936   1.045       .  S
C929        C930   1.390       .  A
C930        H934   1.083       .  S
C937        C942   1.383       .  A
C937        C938   1.407       .  A
C937        N943   1.351       .  A
C938        C939   1.410       .  A
C938        H949   1.082       .  S
C939        C948   1.379       .  A
C939        C940   1.380       .  A
C940        C941   1.404       .  A
C940        N946   1.344       .  A
C941        C942   1.403       .  A
C941        H950   1.083       .  S
C942        C945   1.374       .  A
N943        C944   1.357       .  A
N943        H953   1.044       .  S
C944        C945   1.396       .  A
C945        H951   1.083       .  S
N946        C947   1.364       .  A
N946        H954   1.043       .  S
C947        C948   1.408       .  A
C948        H952   1.077       .  S
C955        C960   1.384       .  A
C955        C956   1.405   1_545  A
C955        N961   1.345       .  A
C956        C957   1.403       .  A
C956        H967   1.082       .  S
C957        C966   1.380       .  A
C957        C958   1.384       .  A
C958        C959   1.409       .  A
C958        N964   1.348       .  A
C959        C960   1.409   1_565  A
C959        H968   1.082       .  S
C960        C963   1.385       .  A
N961        C962   1.357       .  A
N961        H971   1.045       .  S
C962        C963   1.399       .  A
C963        H969   1.082       .  S
N964        C965   1.358       .  A
N964        H972   1.045       .  S
C965        C966   1.395       .  A
C966        H970   1.082       .  S
C973        C978   1.384       .  A
C973        C974   1.396       .  A
C973        N979   1.339       .  A
C974        C975   1.396       .  A
C974        H985   1.083       .  S
C975        C984   1.363       .  A
C975        C976   1.382       .  A
C976        C977   1.413       .  A
C976        N982   1.356       .  A
C977        C978   1.414       .  A
C977        H986   1.082       .  S
C978        C981   1.390       .  A
N979        C980   1.353       .  A
N979        H989   1.045       .  S
C980        C981   1.401       .  A
C981        H987   1.082       .  S
N982        C983   1.363       .  A
N982        H990   1.043       .  S
C983        C984   1.401       .  A
C984        H988   1.083       .  S
C991        C996   1.384       .  A
C991        C992   1.403   1_545  A
C991        N997   1.343       .  A
C992        C993   1.402       .  A
C992       H1003   1.082       .  S
C993       C1002   1.379       .  A
C993        C994   1.383       .  A
C994        C995   1.413       .  A
C994       N1000   1.353       .  A
C995        C996   1.413   1_565  A
C995       H1004   1.082       .  S
C996        C999   1.391       .  A
N997        C998   1.355       .  A
N997       H1007   1.045       .  S
C998        C999   1.401       .  A
C999       H1005   1.082       .  S
N1000      C1001   1.361       .  A
N1000      H1008   1.044       .  S
C1001      C1002   1.396       .  A
C1002      H1006   1.082       .  S
C1009      C1014   1.385       .  A
C1009      C1010   1.402       .  A
C1009      N1015   1.341       .  A
C1010      C1011   1.400       .  A
C1010      H1021   1.083       .  S
C1011      C1020   1.377       .  A
C1011      C1012   1.385       .  A
C1012      C1013   1.407       .  A
C1012      N1018   1.347       .  A
C1013      C1014   1.406       .  A
C1013      H1022   1.082       .  S
C1014      C1017   1.385       .  A
N1015      C1016   1.355       .  A
N1015      H1025   1.045       .  S
C1016      C1017   1.397       .  A
C1017      H1023   1.082       .  S
N1018      C1019   1.356       .  A
N1018      H1026   1.045       .  S
C1019      C1020   1.394       .  A
C1020      H1024   1.083       .  S
C1027      C1032   1.385       .  A
C1027      C1028   1.403       .  A
C1027      N1033   1.342       .  A
C1028      C1029   1.402       .  A
C1028      H1039   1.082       .  S
C1029      C1038   1.379       .  A
C1029      C1030   1.386       .  A
C1030      C1031   1.399       .  A
C1030      N1036   1.338       .  A
C1031      C1032   1.397       .  A
C1031      H1040   1.083       .  S
C1032      C1035   1.373       .  A
N1033      C1034   1.354       .  A
N1033      H1043   1.045       .  S
C1034      C1035   1.391       .  A
C1035      H1041   1.083       .  S
N1036      C1037   1.353       .  A
N1036      H1044   1.045       .  S
C1037      C1038   1.394       .  A
C1038      H1042   1.082       .  S
C1045      C1050   1.381       .  A
C1045      C1046   1.416       .  A
C1045      N1051   1.356       .  A
C1046      C1047   1.417       .  A
C1046      H1057   1.082       .  S
C1047      C1056   1.393       .  A
C1047      C1048   1.384       .  A
C1048      C1049   1.395       .  A
C1048      N1054   1.337       .  A
C1049      C1050   1.395       .  A
C1049      H1058   1.083       .  S
C1050      C1053   1.364       .  A
N1051      C1052   1.365       .  A
N1051      H1061   1.044       .  S
C1052      C1053   1.400       .  A
C1053      H1059   1.083       .  S
N1054      C1055   1.352       .  A
N1054      H1062   1.045       .  S
C1055      C1056   1.403       .  A
C1056      H1060   1.082       .  S
C1063      C1068   1.379       .  A
C1063      C1064   1.411       .  A
C1063      N1069   1.345       .  A
C1064      C1065   1.408       .  A
C1064      H1075   1.082       .  S
C1065      C1074   1.389       .  A
C1065      C1066   1.383       .  A
C1066      C1067   1.403       .  A
C1066      N1072   1.340       .  A
C1067      C1068   1.401       .  A
C1067      H1076   1.082       .  S
C1068      C1071   1.378       .  A
N1069      C1070   1.365       .  A
N1069      H1079   1.045       .  S
C1070      C1071   1.405       .  A
C1071      H1077   1.081       .  S
N1072      C1073   1.356       .  A
N1072      H1080   1.045       .  S
C1073      C1074   1.399       .  A
C1074      H1078   1.082       .  S
C1081      C1086   1.380   1_554  A
C1081      C1082   1.412       .  A
C1081      N1087   1.349       .  A
C1082      C1083   1.411       .  A
C1082      H1093   1.082       .  S
C1083      C1092   1.388       .  A
C1083      C1084   1.381   1_554  A
C1084      C1085   1.412       .  A
C1084      N1090   1.350       .  A
C1085      C1086   1.411       .  A
C1085      H1094   1.082       .  S
C1086      C1089   1.388       .  A
N1087      C1088   1.363       .  A
N1087      H1097   1.045       .  S
C1088      C1089   1.406   1_554  A
C1089      H1095   1.081       .  S
N1090      C1091   1.364   1_556  A
N1090      H1098   1.044       .  S
C1091      C1092   1.404       .  A
C1092      H1096   1.082       .  S
C1099      C1104   1.380   1_556  A
C1099      C1100   1.417       .  A
C1099      N1105   1.354       .  A
C1100      C1101   1.416       .  A
C1100      H1111   1.082       .  S
C1101      C1110   1.394       .  A
C1101      C1102   1.380   1_556  A
C1102      C1103   1.407       .  A
C1102      N1108   1.346       .  A
C1103      C1104   1.406       .  A
C1103      H1112   1.082       .  S
C1104      C1107   1.381       .  A
N1105      C1106   1.366   1_556  A
N1105      H1115   1.044       .  S
C1106      C1107   1.405       .  A
C1107      H1113   1.082       .  S
N1108      C1109   1.363       .  A
N1108      H1116   1.044       .  S
C1109      C1110   1.409   1_554  A
C1110      H1114   1.082       .  S
C1117      C1122   1.381       .  A
C1117      C1118   1.410       .  A
C1117      N1123   1.345       .  A
C1118      C1119   1.407       .  A
C1118      H1129   1.082       .  S
C1119      C1128   1.388       .  A
C1119      C1120   1.383       .  A
C1120      C1121   1.404       .  A
C1120      N1126   1.341       .  A
C1121      C1122   1.402       .  A
C1121      H1130   1.082       .  S
C1122      C1125   1.379       .  A
N1123      C1124   1.363       .  A
N1123      H1133   1.045       .  S
C1124      C1125   1.403       .  A
C1125      H1131   1.082       .  S
N1126      C1127   1.356       .  A
N1126      H1134   1.045       .  S
C1127      C1128   1.398       .  A
C1128      H1132   1.082       .  S
C1135      C1140   1.381       .  A
C1135      C1136   1.402       .  A
C1135      N1141   1.341       .  A
C1136      C1137   1.401       .  A
C1136      H1147   1.083       .  S
C1137      C1146   1.375       .  A
C1137      C1138   1.383       .  A
C1138      C1139   1.415       .  A
C1138      N1144   1.354       .  A
C1139      C1140   1.415       .  A
C1139      H1148   1.082       .  S
C1140      C1143   1.391       .  A
N1141      C1142   1.360       .  A
N1141      H1151   1.045       .  S
C1142      C1143   1.408       .  A
C1143      H1149   1.082       .  S
N1144      C1145   1.361       .  A
N1144      H1152   1.044       .  S
C1145      C1146   1.395       .  A
C1146      H1150   1.083       .  S
C1153      C1158   1.385       .  A
C1153      C1154   1.403       .  A
C1153      N1159   1.341       .  A
C1154      C1155   1.401       .  A
C1154      H1165   1.082       .  S
C1155      C1164   1.378       .  A
C1155      C1156   1.386       .  A
C1156      C1157   1.400       .  A
C1156      N1162   1.339       .  A
C1157      C1158   1.398       .  A
C1157      H1166   1.082       .  S
C1158      C1161   1.376       .  A
N1159      C1160   1.355       .  A
N1159      H1169   1.045       .  S
C1160      C1161   1.392       .  A
C1161      H1167   1.082       .  S
N1162      C1163   1.353       .  A
N1162      H1170   1.045       .  S
C1163      C1164   1.393       .  A
C1164      H1168   1.082       .  S
C1171      C1176   1.384       .  A
C1171      C1172   1.405       .  A
C1171      N1177   1.346       .  A
C1172      C1173   1.405       .  A
C1172      H1183   1.082       .  S
C1173      C1182   1.379       .  A
C1173      C1174   1.384       .  A
C1174      C1175   1.408       .  A
C1174      N1180   1.350       .  A
C1175      C1176   1.408       .  A
C1175      H1184   1.082       .  S
C1176      C1179   1.384       .  A
N1177      C1178   1.357       .  A
N1177      H1187   1.045       .  S
C1178      C1179   1.397       .  A
C1179      H1185   1.082       .  S
N1180      C1181   1.357       .  A
N1180      H1188   1.045       .  S
C1181      C1182   1.396       .  A
C1182      H1186   1.082       .  S
C1189      C1194   1.385       .  A
C1189      C1190   1.398       .  A
C1189      N1195   1.339       .  A
C1190      C1191   1.397       .  A
C1190      H1201   1.083       .  S
C1191      C1200   1.371       .  A
C1191      C1192   1.385       .  A
C1192      C1193   1.407       .  A
C1192      N1198   1.346       .  A
C1193      C1194   1.406       .  A
C1193      H1202   1.082       .  S
C1194      C1197   1.382       .  A
N1195      C1196   1.353       .  A
N1195      H1205   1.045       .  S
C1196      C1197   1.397       .  A
C1197      H1203   1.082       .  S
N1198      C1199   1.356       .  A
N1198      H1206   1.045       .  S
C1199      C1200   1.391       .  A
C1200      H1204   1.083       .  S
C1207      C1212   1.386       .  A
C1207      C1208   1.401       .  A
C1207      N1213   1.343       .  A
C1208      C1209   1.400       .  A
C1208      H1219   1.083       .  S
C1209      C1218   1.374       .  A
C1209      C1210   1.386       .  A
C1210      C1211   1.399       .  A
C1210      N1216   1.341       .  A
C1211      C1212   1.399       .  A
C1211      H1220   1.083       .  S
C1212      C1215   1.372       .  A
N1213      C1214   1.354       .  A
N1213      H1223   1.045       .  S
C1214      C1215   1.392       .  A
C1215      H1221   1.083       .  S
N1216      C1217   1.352       .  A
N1216      H1224   1.045       .  S
C1217      C1218   1.392       .  A
C1218      H1222   1.083       .  S
C1225      C1230   1.385       .  A
C1225      C1226   1.407       .  A
C1225      N1231   1.349       .  A
C1226      C1227   1.407       .  A
C1226      H1237   1.082       .  S
C1227      C1236   1.383       .  A
C1227      C1228   1.384       .  A
C1228      C1229   1.405       .  A
C1228      N1234   1.346       .  A
C1229      C1230   1.404       .  A
C1229      H1238   1.083       .  S
C1230      C1233   1.378       .  A
N1231      C1232   1.357       .  A
N1231      H1241   1.045       .  S
C1232      C1233   1.396       .  A
C1233      H1239   1.083       .  S
N1234      C1235   1.357       .  A
N1234      H1242   1.045       .  S
C1235      C1236   1.397       .  A
C1236      H1240   1.082       .  S
C1243      C1248   1.383       .  A
C1243      C1244   1.406       .  A
C1243      N1249   1.345       .  A
C1244      C1245   1.404       .  A
C1244      H1255   1.082       .  S
C1245      C1254   1.381       .  A
C1245      C1246   1.384       .  A
C1246      C1247   1.410       .  A
C1246      N1252   1.348       .  A
C1247      C1248   1.409       .  A
C1247      H1256   1.082       .  S
C1248      C1251   1.388       .  A
N1249      C1250   1.357       .  A
N1249      H1259   1.045       .  S
C1250      C1251   1.400       .  A
C1251      H1257   1.082       .  S
N1252      C1253   1.358       .  A
N1252      H1260   1.045       .  S
C1253      C1254   1.396       .  A
C1254      H1258   1.083       .  S
C1261      C1266   1.386       .  A
C1261      C1262   1.397       .  A
C1261      N1267   1.339       .  A
C1262      C1263   1.396       .  A
C1262      H1273   1.082       .  S
C1263      C1272   1.370       .  A
C1263      C1264   1.386       .  A
C1264      C1265   1.402       .  A
C1264      N1270   1.342       .  A
C1265      C1266   1.402       .  A
C1265      H1274   1.083       .  S
C1266      C1269   1.376       .  A
N1267      C1268   1.351       .  A
N1267      H1277   1.045       .  S
C1268      C1269   1.394       .  A
C1269      H1275   1.083       .  S
N1270      C1271   1.354       .  A
N1270      H1278   1.045       .  S
C1271      C1272   1.389       .  A
C1272      H1276   1.083       .  S
C1279      C1284   1.384       .  A
C1279      C1280   1.410       .  A
C1279      N1285   1.350       .  A
C1280      C1281   1.410       .  A
C1280      H1291   1.082       .  S
C1281      C1290   1.386       .  A
C1281      C1282   1.384       .  A
C1282      C1283   1.404       .  A
C1282      N1288   1.345       .  A
C1283      C1284   1.403       .  A
C1283      H1292   1.082       .  S
C1284      C1287   1.379       .  A
N1285      C1286   1.359       .  A
N1285      H1295   1.045       .  S
C1286      C1287   1.395       .  A
C1287      H1293   1.082       .  S
N1288      C1289   1.356       .  A
N1288      H1296   1.045       .  S
C1289      C1290   1.399       .  A
C1290      H1294   1.082       .  S
C1297      C1302   1.385       .  A
C1297      C1298   1.406       .  A
C1297      N1303   1.346       .  A
C1298      C1299   1.405       .  A
C1298      H1309   1.082       .  S
C1299      C1308   1.382       .  A
C1299      C1300   1.385       .  A
C1300      C1301   1.399       .  A
C1300      N1306   1.339       .  A
C1301      C1302   1.398       .  A
C1301      H1310   1.083       .  S
C1302      C1305   1.372       .  A
N1303      C1304   1.356       .  A
N1303      H1313   1.045       .  S
C1304      C1305   1.391       .  A
C1305      H1311   1.083       .  S
N1306      C1307   1.354       .  A
N1306      H1314   1.045       .  S
C1307      C1308   1.396       .  A
C1308      H1312   1.082       .  S
C1315      C1320   1.384       .  A
C1315      C1316   1.403       .  A
C1315      N1321   1.344       .  A
C1316      C1317   1.403       .  A
C1316      H1327   1.083       .  S
C1317      C1326   1.376       .  A
C1317      C1318   1.384       .  A
C1318      C1319   1.408       .  A
C1318      N1324   1.350       .  A
C1319      C1320   1.408       .  A
C1319      H1328   1.082       .  S
C1320      C1323   1.385       .  A
N1321      C1322   1.355       .  A
N1321      H1331   1.045       .  S
C1322      C1323   1.397       .  A
C1323      H1329   1.082       .  S
N1324      C1325   1.357       .  A
N1324      H1332   1.044       .  S
C1325      C1326   1.396       .  A
C1326      H1330   1.083       .  S
C1333      C1338   1.385       .  A
C1333      C1334   1.396       .  A
C1333      N1339   1.336       .  A
C1334      C1335   1.395       .  A
C1334      H1345   1.083       .  S
C1335      C1344   1.369       .  A
C1335      C1336   1.385       .  A
C1336      C1337   1.409       .  A
C1336      N1342   1.349       .  A
C1337      C1338   1.409       .  A
C1337      H1346   1.082       .  S
C1338      C1341   1.386       .  A
N1339      C1340   1.352       .  A
N1339      H1349   1.045       .  S
C1340      C1341   1.398       .  A
C1341      H1347   1.082       .  S
N1342      C1343   1.358       .  A
N1342      H1350   1.044       .  S
C1343      C1344   1.390       .  A
C1344      H1348   1.083       .  S
C1351      C1356   1.385       .  A
C1351      C1352   1.400       .  A
C1351      N1357   1.340       .  A
C1352      C1353   1.399       .  A
C1352      H1363   1.082       .  S
C1353      C1362   1.375       .  A
C1353      C1354   1.385       .  A
C1354      C1355   1.404       .  A
C1354      N1360   1.342       .  A
C1355      C1356   1.402       .  A
C1355      H1364   1.083       .  S
C1356      C1359   1.378       .  A
N1357      C1358   1.352       .  A
N1357      H1367   1.045       .  S
C1358      C1359   1.395       .  A
C1359      H1365   1.083       .  S
N1360      C1361   1.355       .  A
N1360      H1368   1.045       .  S
C1361      C1362   1.391       .  A
C1362      H1366   1.082       .  S
C1369      C1374   1.381   1_556  A
C1369      C1370   1.413       .  A
C1369      N1375   1.351       .  A
C1370      C1371   1.412       .  A
C1370      H1381   1.082       .  S
C1371      C1380   1.387       .  A
C1371      C1372   1.380   1_556  A
C1372      C1373   1.414       .  A
C1372      N1378   1.354       .  A
C1373      C1374   1.414       .  A
C1373      H1382   1.082       .  S
C1374      C1377   1.391       .  A
N1375      C1376   1.365   1_556  A
N1375      H1385   1.044       .  S
C1376      C1377   1.405       .  A
C1377      H1383   1.082       .  S
N1378      C1379   1.363   1_554  A
N1378      H1386   1.044       .  S
C1379      C1380   1.408       .  A
C1380      H1384   1.082       .  S
C1387      C1392   1.381       .  A
C1387      C1388   1.410       .  A
C1387      N1393   1.344       .  A
C1388      C1389   1.407       .  A
C1388      H1399   1.082       .  S
C1389      C1398   1.389       .  A
C1389      C1390   1.383       .  A
C1390      C1391   1.408       .  A
C1390      N1396   1.344       .  A
C1391      C1392   1.406       .  A
C1391      H1400   1.082       .  S
C1392      C1395   1.385       .  A
N1393      C1394   1.363       .  A
N1393      H1403   1.045       .  S
C1394      C1395   1.405       .  A
C1395      H1401   1.082       .  S
N1396      C1397   1.358       .  A
N1396      H1404   1.045       .  S
C1397      C1398   1.399       .  A
C1398      H1402   1.082       .  S
C1405      C1410   1.383       .  A
C1405      C1406   1.400       .  A
C1405      N1411   1.340       .  A
C1406      C1407   1.399       .  A
C1406      H1417   1.083       .  S
C1407      C1416   1.369       .  A
C1407      C1408   1.381       .  A
C1408      C1409   1.417       .  A
C1408      N1414   1.357       .  A
C1409      C1410   1.417       .  A
C1409      H1418   1.082       .  S
C1410      C1413   1.396       .  A
N1411      C1412   1.355       .  A
N1411      H1421   1.045       .  S
C1412      C1413   1.404       .  A
C1413      H1419   1.082       .  S
N1414      C1415   1.364       .  A
N1414      H1422   1.044       .  S
C1415      C1416   1.402       .  A
C1416      H1420   1.083       .  S
C1423      C1428   1.381   1_554  A
C1423      C1424   1.414       .  A
C1423      N1429   1.354       .  A
C1424      C1425   1.414       .  A
C1424      H1435   1.082       .  S
C1425      C1434   1.390       .  A
C1425      C1426   1.381   1_554  A
C1426      C1427   1.413       .  A
C1426      N1432   1.352       .  A
C1427      C1428   1.413       .  A
C1427      H1436   1.082       .  S
C1428      C1431   1.388       .  A
N1429      C1430   1.363       .  A
N1429      H1439   1.044       .  S
C1430      C1431   1.408   1_554  A
C1431      H1437   1.082       .  S
N1432      C1433   1.365   1_556  A
N1432      H1440   1.044       .  S
C1433      C1434   1.405       .  A
C1434      H1438   1.082       .  S
C1441      C1446   1.382   1_554  A
C1441      C1442   1.405       .  A
C1441      N1447   1.346       .  A
C1442      C1443   1.405       .  A
C1442      H1453   1.082       .  S
C1443      C1452   1.377       .  A
C1443      C1444   1.380   1_554  A
C1444      C1445   1.416       .  A
C1444      N1450   1.355       .  A
C1445      C1446   1.416       .  A
C1445      H1454   1.082       .  S
C1446      C1449   1.391       .  A
N1447      C1448   1.361   1_554  A
N1447      H1457   1.044       .  S
C1448      C1449   1.408       .  A
C1449      H1455   1.082       .  S
N1450      C1451   1.365   1_556  A
N1450      H1458   1.044       .  S
C1451      C1452   1.405       .  A
C1452      H1456   1.082       .  S
C1459      C1464   1.381       .  A
C1459      C1460   1.406       .  A
C1459      N1465   1.342       .  A
C1460      C1461   1.405       .  A
C1460      H1471   1.083       .  S
C1461      C1470   1.381       .  A
C1461      C1462   1.383       .  A
C1462      C1463   1.412       .  A
C1462      N1468   1.351       .  A
C1463      C1464   1.411       .  A
C1463      H1472   1.082       .  S
C1464      C1467   1.391       .  A
N1465      C1466   1.362       .  A
N1465      H1475   1.044       .  S
C1466      C1467   1.405       .  A
C1467      H1473   1.081       .  S
N1468      C1469   1.359       .  A
N1468      H1476   1.044       .  S
C1469      C1470   1.398       .  A
C1470      H1474   1.083       .  S
C1477      C1482   1.384       .  A
C1477      C1478   1.408       .  A
C1477      N1483   1.351       .  A
C1478      C1479   1.410       .  A
C1478      H1489   1.082       .  S
C1479      C1488   1.381       .  A
C1479      C1480   1.381       .  A
C1480      C1481   1.402       .  A
C1480      N1486   1.344       .  A
C1481      C1482   1.401       .  A
C1481      H1490   1.083       .  S
C1482      C1485   1.373       .  A
N1483      C1484   1.358       .  A
N1483      H1493   1.044       .  S
C1484      C1485   1.394       .  A
C1485      H1491   1.083       .  S
N1486      C1487   1.362       .  A
N1486      H1494   1.044       .  S
C1487      C1488   1.407       .  A
C1488      H1492   1.082       .  S
C1495      C1500   1.379       .  A
C1495      C1496   1.413       .  A
C1495      N1501   1.351       .  A
C1496      C1497   1.412       .  A
C1496      H1507   1.082       .  S
C1497      C1506   1.388       .  A
C1497      C1498   1.378       .  A
C1498      C1499   1.411       .  A
C1498      N1504   1.349       .  A
C1499      C1500   1.410       .  A
C1499      H1508   1.082       .  S
C1500      C1503   1.386       .  A
N1501      C1502   1.365       .  A
N1501      H1511   1.043       .  S
C1502      C1503   1.408       .  A
C1503      H1509   1.081       .  S
N1504      C1505   1.367       .  A
N1504      H1512   1.044       .  S
C1505      C1506   1.409       .  A
C1506      H1510   1.078       .  S
C1513      C1518   1.381       .  A
C1513      C1514   1.395       .  A
C1513      N1519   1.334       .  A
C1514      C1515   1.393       .  A
C1514      H1525   1.083       .  S
C1515      C1524   1.368       .  A
C1515      C1516   1.383       .  A
C1516      C1517   1.414       .  A
C1516      N1522   1.351       .  A
C1517      C1518   1.413       .  A
C1517      H1526   1.082       .  S
C1518      C1521   1.390       .  A
N1519      C1520   1.357       .  A
N1519      H1529   1.045       .  S
C1520      C1521   1.408       .  A
C1521      H1527   1.082       .  S
N1522      C1523   1.361       .  A
N1522      H1530   1.044       .  S
C1523      C1524   1.390       .  A
C1524      H1528   1.083       .  S
C1531      C1536   1.379       .  A
C1531      C1532   1.412       .  A
C1531      N1537   1.347       .  A
C1532      C1533   1.409       .  A
C1532      H1543   1.082       .  S
C1533      C1542   1.390       .  A
C1533      C1534   1.382       .  A
C1534      C1535   1.408       .  A
C1534      N1540   1.346       .  A
C1535      C1536   1.407       .  A
C1535      H1544   1.082       .  S
C1536      C1539   1.383       .  A
N1537      C1538   1.366       .  A
N1537      H1547   1.044       .  S
C1538      C1539   1.409       .  A
C1539      H1545   1.080       .  S
N1540      C1541   1.359       .  A
N1540      H1548   1.045       .  S
C1541      C1542   1.399       .  A
C1542      H1546   1.082       .  S
C1549      C1554   1.380   1_554  A
C1549      C1550   1.410       .  A
C1549      N1555   1.350       .  A
C1550      C1551   1.410       .  A
C1550      H1561   1.082       .  S
C1551      C1560   1.384       .  A
C1551      C1552   1.379   1_554  A
C1552      C1553   1.409       .  A
C1552      N1558   1.348       .  A
C1553      C1554   1.409       .  A
C1553      H1562   1.082       .  S
C1554      C1557   1.381       .  A
N1555      C1556   1.364   1_554  A
N1555      H1565   1.043       .  S
C1556      C1557   1.406       .  A
C1557      H1563   1.079       .  S
N1558      C1559   1.363       .  A
N1558      H1566   1.042       .  S
C1559      C1560   1.407   1_556  A
C1560      H1564   1.081       .  S
C1567      C1572   1.379   1_554  A
C1567      C1568   1.408       .  A
C1567      N1573   1.348       .  A
C1568      C1569   1.409       .  A
C1568      H1579   1.082       .  S
C1569      C1578   1.381       .  A
C1569      C1570   1.380   1_554  A
C1570      C1571   1.410       .  A
C1570      N1576   1.351       .  A
C1571      C1572   1.410       .  A
C1571      H1580   1.082       .  S
C1572      C1575   1.383       .  A
N1573      C1574   1.365   1_554  A
N1573      H1583   1.043       .  S
C1574      C1575   1.407       .  A
C1575      H1581   1.079       .  S
N1576      C1577   1.363   1_556  A
N1576      H1584   1.045       .  S
C1577      C1578   1.409       .  A
C1578      H1582   1.082       .  S
C1585      C1590   1.385       .  A
C1585      C1586   1.395       .  A
C1585      N1591   1.341       .  A
C1586      C1587   1.396       .  A
C1586      H1597   1.083       .  S
C1587      C1596   1.361       .  A
C1587      C1588   1.378       .  A
C1588      C1589   1.412       .  A
C1588      N1594   1.354       .  A
C1589      C1590   1.415       .  A
C1589      H1598   1.082       .  S
C1590      C1593   1.386       .  A
N1591      C1592   1.351       .  A
N1591      H1601   1.045       .  S
C1592      C1593   1.402       .  A
C1593      H1599   1.082       .  S
N1594      C1595   1.365       .  A
N1594      H1602   1.044       .  S
C1595      C1596   1.405       .  A
C1596      H1600   1.077   1_554  S
C1603      C1608   1.383       .  A
C1603      C1604   1.405       .  A
C1603      N1609   1.343       .  A
C1604      C1605   1.405       .  A
C1604      H1615   1.083       .  S
C1605      C1614   1.382       .  A
C1605      C1606   1.382       .  A
C1606      C1607   1.411       .  A
C1606      N1612   1.347       .  A
C1607      C1608   1.407       .  A
C1607      H1616   1.082       .  S
C1608      C1611   1.388       .  A
N1609      C1610   1.357       .  A
N1609      H1619   1.045       .  S
C1610      C1611   1.397       .  A
C1611      H1617   1.082       .  S
N1612      C1613   1.363       .  A
N1612      H1620   1.045       .  S
C1613      C1614   1.405       .  A
C1614      H1618   1.082       .  S
