geometry optimzed in LAMMPS
_audit_creation_date              2020-11-30 
_audit_creation_method            'lammps2cif' 
_symmetry_space_group_name_H-M    'P1' 
_symmetry_Int_Tables_number       1 
_symmetry_cell_setting            triclinic 
loop_ 
_symmetry_equiv_pos_as_xyz 
  x,y,z 
_cell_length_a                    46.49826833 
_cell_length_b                    34.453347402147784 
_cell_length_c                    40.67976006112131 
_cell_angle_alpha                 90.23220447302393 
_cell_angle_beta                  90.97023107460927 
_cell_angle_gamma                 91.06046544974667 
loop_ 
_atom_site_label 
_atom_site_type_symbol 
_atom_site_fract_x 
_atom_site_fract_y 
_atom_site_fract_z 
_atom_site_charge 
C1          C  0.04838631  0.11101002  0.08444568     0.03700
C2          C  0.05997501  0.11180237  0.05254653    -0.12400
C3          C  0.05203289  0.08362673  0.02904514     0.01200
C4          C  0.03173264  0.05477221  0.03704261    -0.10900
C5          C  0.01917951  0.05363036  0.06813683     0.03700
C6          C  0.02749819  0.08195850  0.09194699    -0.10400
H7          H  0.07668778  0.13286047  0.04661349     0.09300
H8          H  0.02640652  0.03212118  0.01923557     0.06800
H9          H  0.01902349  0.08006134  0.11653567     0.06700
Zn10       Zn  0.93826477  0.39822725  0.04741890     1.49700
Zn11       Zn  0.93723514  0.40983529  0.12130765     1.49400
Zn12       Zn  0.99511804  0.43185051  0.08218490     1.49100
Zn13       Zn  0.93925778  0.48445223  0.07671538     1.49500
O14         O  0.95324529  0.43171354  0.08225716    -1.83500
O15         O  0.92605242  0.34454574  0.06342711    -0.74200
O16         O  0.96919334  0.39002996  0.14964575    -0.74000
O17         O  0.00769518  0.41645233  0.03519568    -0.73500
O18         O  0.91047075  0.36432134  0.11173958    -0.74200
O19         O  0.96680644  0.39656035  0.01054502    -0.73800
O20         O  0.00940331  0.39522544  0.12050980    -0.74400
O21         O  0.97280927  0.52228918  0.06743591    -0.73700
O22         O  0.91229011  0.44797918  0.14355634    -0.74500
O23         O  0.01032292  0.48861249  0.08620095    -0.73900
O24         O  0.91902709  0.50351164  0.11696817    -0.74400
O25         O  0.90485409  0.48336675  0.04476085    -0.74300
O26         O  0.90076829  0.42061534  0.03203114    -0.74100
C27         C  0.91032031  0.33958629  0.08850712     0.77700
C28         C  0.99580731  0.38308606  0.14592453     0.78200
C29         C  0.99361133  0.40514791  0.00941095     0.77200
C30         C  0.99950586  0.52018526  0.07540383     0.77600
C31         C  0.90668245  0.48356669  0.13904370     0.78700
C32         C  0.89027830  0.45445709  0.03310540     0.77700
C33         C  0.78898300  0.20812524  0.02462026     0.80800
N34         N  0.80426148  0.21984614  0.05197521    -0.77500
C35         C  0.83337716  0.22405365  0.05074266     0.83300
N36         N  0.84742817  0.21796374  0.52177944    -0.77400
C37         C  0.83324117  0.20549151  0.49433611     0.83400
N38         N  0.80418427  0.20059268  0.49492046    -0.79100
C39         C  0.00978576  0.35921752  0.17210187     0.03700
C40         C  0.03056040  0.33099423  0.16503324    -0.12400
C41         C  0.03955587  0.30480786  0.18968981     0.01200
C42         C  0.02829359  0.30755849  0.22139033    -0.10900
C43         C  0.00711771  0.33452062  0.22860534     0.03700
C44         C  0.99825462  0.36035944  0.20402274    -0.10400
H45         H  0.03853821  0.32812074  0.14029528     0.09300
H46         H  0.03455975  0.28659746  0.23987991     0.06800
H47         H  0.98142765  0.38063250  0.20952435     0.06700
Zn48       Zn  0.11806256  0.23736301  0.18756987     1.49700
Zn49       Zn  0.06184748  0.18390511  0.17479006     1.49400
Zn50       Zn  0.12042902  0.16692018  0.13661704     1.49100
Zn51       Zn  0.11594592  0.14850920  0.20948461     1.49500
O52         O  0.10356112  0.18499528  0.17663983    -1.83500
O53         O  0.08480541  0.27422245  0.19294984    -0.74200
O54         O  0.04840698  0.14742992  0.13579570    -0.74000
O55         O  0.14519585  0.20833232  0.11661176    -0.73500
O56         O  0.04763503  0.24027994  0.17111888    -0.74200
O57         O  0.14405569  0.25751882  0.15221839    -0.73800
O58         O  0.08885617  0.14499819  0.10698058    -0.74400
O59         O  0.13114227  0.09828284  0.19055399    -0.73700
O60         O  0.04758341  0.16642089  0.22039874    -0.74500
O61         O  0.14852515  0.12381595  0.14494002    -0.73900
O62         O  0.08612474  0.14092312  0.24449583    -0.74400
O63         O  0.15060376  0.17296400  0.23040868    -0.74300
O64         O  0.14641668  0.23681742  0.22592320    -0.74100
C65         C  0.05859413  0.27182995  0.18308659     0.77700
C66         C  0.06223368  0.13624541  0.11044486     0.78200
C67         C  0.15380268  0.24170249  0.12653596     0.77200
C68         C  0.14832864  0.09721713  0.16646317     0.77600
C69         C  0.06001759  0.15145474  0.24554877     0.78700
C70         C  0.16024016  0.20727700  0.23563877     0.77700
C71         C  0.26881747  0.47171100  0.23885627     0.80800
N72         N  0.25196659  0.46040714  0.26441286    -0.77500
C73         C  0.22300438  0.96385940  0.26216151     0.83300
N74         N  0.21130229  0.97869830  0.23453238    -0.77400
C75         C  0.22739688  0.99070827  0.20917990     0.83400
N76         N  0.25647885  0.98786808  0.21152818    -0.79100
C77         C  0.04536067  0.13026775  0.33584871     0.03700
C78         C  0.02620963  0.16053839  0.34275386    -0.12400
C79         C  0.01556056  0.18427273  0.31730766     0.01200
C80         C  0.02473690  0.17836886  0.28499275    -0.10900
C81         C  0.04510919  0.15005670  0.27774804     0.03700
C82         C  0.05470003  0.12548949  0.30322228    -0.10400
H83         H  0.01961848  0.16565203  0.36779467     0.09300
H84         H  0.01753507  0.19795061  0.26587570     0.06800
H85         H  0.07078083  0.10404366  0.29801754     0.06700
Zn86       Zn  0.93510711  0.33221898  0.29564541     1.49700
Zn87       Zn  0.99171789  0.30459335  0.33207235     1.49400
Zn88       Zn  0.93370515  0.32525556  0.37040154     1.49100
Zn89       Zn  0.93654889  0.24899535  0.32750195     1.49500
O90         O  0.95001345  0.30236938  0.33186523    -1.83500
O91         O  0.96419573  0.33622088  0.25947632    -0.74200
O92         O  0.00609299  0.34212187  0.36962412    -0.74000
O93         O  0.90629309  0.36842213  0.35885448    -0.73500
O94         O  0.00480028  0.32175347  0.28628262    -0.74200
O95         O  0.92396568  0.38521274  0.31056357    -0.73800
O96         O  0.96559817  0.34948472  0.39754816    -0.74400
O97         O  0.92003814  0.22936395  0.37000770    -0.73700
O98         O  0.00708908  0.24884837  0.33577801    -0.74500
O99         O  0.91170809  0.28503845  0.39586057    -0.73900
O100        O  0.96972926  0.21394548  0.31558242    -0.74400
O101        O  0.90090190  0.24700031  0.29763508    -0.74300
O102        O  0.89722642  0.30786467  0.28066534    -0.74100
C103        C  0.99135154  0.33142308  0.25994461     0.77700
C104        C  0.99247053  0.35600122  0.39409504     0.78200
C105        C  0.90764608  0.39173414  0.33472328     0.77200
C106        C  0.90867727  0.24835476  0.39313801     0.77600
C107        C  0.99632754  0.21714722  0.32390692     0.78700
C108        C  0.88633347  0.27399012  0.28424515     0.77700
C109        C  0.78431555  0.50704039  0.25956672     0.80800
N110        N  0.79671837  0.52246734  0.23230095    -0.77500
C111        C  0.82571079  0.52849854  0.23122801     0.83300
N112        N  0.84212962  0.51814123  0.25732610    -0.77400
C113        C  0.83068664  0.50173738  0.28439608     0.83400
N114        N  0.80158092  0.49592236  0.28527251    -0.79100
C115        C  0.00721367  0.38063454  0.41962313     0.03700
C116        C  0.02850658  0.40865649  0.41169740    -0.12400
C117        C  0.03977461  0.43419815  0.43613984     0.01200
C118        C  0.02986772  0.43087015  0.46867134    -0.10900
C119        C  0.00798187  0.40410872  0.47670354     0.04500
C120        C  0.99699446  0.37910726  0.45203698    -0.10400
H121        H  0.03562860  0.41132355  0.38657415     0.09300
H122        H  0.03775560  0.45116190  0.48731726     0.06800
H123        H  0.97981594  0.35876415  0.45798791     0.06700
Zn124      Zn  0.14344912  0.06636923  0.41109326     1.49700
Zn125      Zn  0.10528482  0.02197136  0.45910445     1.49400
Zn126      Zn  0.08861366  0.10625482  0.43067797     1.49100
Zn127      Zn  0.08558452  0.02877093  0.38409074     1.49500
O128        O  0.10430007  0.05553074  0.42132729    -1.83500
O129        O  0.17019376  0.05538957  0.44855986    -0.74200
O130        O  0.08589055  0.04916017  0.49628001    -0.74000
O131        O  0.12187607  0.14625148  0.43478349    -0.73500
O132        O  0.14652884  0.50634515  0.47168484    -0.74200
O133        O  0.15147822  0.12109342  0.39888304    -0.73800
O134        O  0.06787531  0.10359762  0.47512151    -0.74400
O135        O  0.06542056  0.07129001  0.35675712    -0.73700
O136        O  0.07930571  0.47532675  0.45068921    -0.74500
O137        O  0.06366748  0.12236738  0.39082198    -0.73900
O138        O  0.05865127  0.48520338  0.40161101    -0.74400
O139        O  0.11590599  0.00179568  0.35618262    -0.74300
O140        O  0.15540111  0.03090404  0.37618764    -0.74100
C141        C  0.16979717  0.52561529  0.46685181     0.77700
C142        C  0.07047463  0.07925360  0.49868190     0.78200
C143        C  0.14492393  0.14846079  0.41816293     0.77200
C144        C  0.05835845  0.10645275  0.36276805     0.77600
C145        C  0.06060618  0.46613511  0.42855646     0.78700
C146        C  0.14323112  0.00628817  0.35699343     0.77700
C147        C  0.27597249  0.25513069  0.50378132     0.80800
N148        N  0.25950345  0.24179704  0.47775332    -0.77500
C149        C  0.23039474  0.24605932  0.47772258     0.83300
N150        N  0.21678744  0.26516721  0.00419928    -0.77400
C151        C  0.23271190  0.27748648  0.03034521     0.83400
N152        N  0.26169705  0.27315293  0.02995909    -0.79100
C153        C  0.50871295  0.33146487  0.09031039     0.03700
C154        C  0.49953637  0.33629634  0.05733112    -0.12400
C155        C  0.51031725  0.31307008  0.03187977     0.01200
C156        C  0.53171829  0.28619043  0.03957871    -0.10900
C157        C  0.54081780  0.27988347  0.07232039     0.03700
C158        C  0.52884518  0.30230378  0.09767555    -0.10400
H159        H  0.48280501  0.35684917  0.05170624     0.09300
H160        H  0.53969144  0.26775683  0.02023137     0.06800
H161        H  0.53536670  0.29734602  0.12297755     0.06700
Zn162      Zn  0.60431553  0.19235519  0.04844921     1.49700
Zn163      Zn  0.58683404  0.10762064  0.07658455     1.49400
Zn164      Zn  0.64177661  0.14770114  0.09617492     1.49100
Zn165      Zn  0.58707843  0.18564241  0.12290304     1.49500
O166        O  0.60288368  0.15878835  0.08585911    -1.83500
O167        O  0.58451748  0.16347133  0.01079104    -0.74200
O168        O  0.61943194  0.06801527  0.07583114    -0.74000
O169        O  0.66558637  0.15372277  0.05716556    -0.73500
O170        O  0.56635587  0.10818055  0.03129829    -0.74200
O171        O  0.64660880  0.20801349  0.03841807    -0.73800
O172        O  0.64856180  0.09516848  0.11293596    -0.74400
O173        O  0.62020742  0.21140858  0.14953985    -0.73700
O174        O  0.56157791  0.09288692  0.11531714    -0.74500
O175        O  0.65830988  0.18443116  0.12785395    -0.73900
O176        O  0.56666741  0.14339680  0.14999822    -0.74400
O177        O  0.56061561  0.22923858  0.10624255    -0.74300
O178        O  0.57872844  0.23860834  0.05644688    -0.74100
C179        C  0.56906522  0.13254680  0.00781122     0.77700
C180        C  0.64197042  0.06688353  0.09424696     0.78200
C181        C  0.66803860  0.18556191  0.04191601     0.77200
C182        C  0.64748860  0.20791921  0.14786816     0.77600
C183        C  0.55792139  0.10861110  0.14349372     0.78700
C184        C  0.56137509  0.24794607  0.07909759     0.77700
C185        C  0.76576732  0.45378228  0.02017708     0.80800
N186        N  0.74922942  0.96421514  0.04597513    -0.77500
C187        C  0.72002301  0.95971314  0.04420955     0.83300
N188        N  0.70941657  0.94902792  0.51750579    -0.77400
C189        C  0.72516823  0.94028244  0.49097735     0.83400
N190        N  0.75416836  0.44541892  0.49257938    -0.79100
C191        C  0.54533068  0.08448617  0.17003564     0.03700
C192        C  0.52528559  0.05421693  0.16248239    -0.12400
C193        C  0.51611196  0.02839991  0.18706568     0.01200
C194        C  0.52804306  0.03218938  0.21889410    -0.10900
C195        C  0.54883520  0.06093975  0.22660939     0.03700
C196        C  0.55672946  0.08786464  0.20240189    -0.10400
H197        H  0.51693769  0.05073282  0.13759775     0.09300
H198        H  0.52237760  0.01101828  0.23748079     0.06800
H199        H  0.57366340  0.10905497  0.20790623     0.06700
Zn200      Zn  0.45154699  0.44153953  0.21246788     1.49700
Zn201      Zn  0.40967627  0.39809900  0.16423122     1.49400
Zn202      Zn  0.46795562  0.43249702  0.13733797     1.49100
Zn203      Zn  0.46519099  0.35535489  0.18390512     1.49500
O204        O  0.44961999  0.40680184  0.17469447    -1.83500
O205        O  0.41166524  0.45960586  0.22723680    -0.74200
O206        O  0.39767847  0.43097763  0.12710158    -0.74000
O207        O  0.49561835  0.47640886  0.15373272    -0.73500
O208        O  0.38472178  0.41618618  0.19975545    -0.74200
O209        O  0.47756733  0.48733576  0.20321714    -0.73800
O210        O  0.43746495  0.45922776  0.10879963    -0.74400
O211        O  0.48986167  0.33893099  0.14455162    -0.73700
O212        O  0.39815792  0.34271398  0.15716798    -0.74500
O213        O  0.48781588  0.38981943  0.11066224    -0.73900
O214        O  0.43198019  0.31476964  0.18729280    -0.74400
O215        O  0.48748509  0.35794955  0.22832407    -0.74300
O216        O  0.47275081  0.41438981  0.24888099    -0.74100
C217        C  0.38728375  0.44360816  0.22049898     0.77700
C218        C  0.41012880  0.45508120  0.10831484     0.78200
C219        C  0.49506537  0.49605702  0.18049745     0.77200
C220        C  0.49514273  0.35481602  0.11679491     0.77600
C221        C  0.40714448  0.31366873  0.17323443     0.78700
C222        C  0.48711168  0.38333225  0.25142501     0.77700
C223        C  0.28151417  0.19604105  0.25251731     0.80800
N224        N  0.29676001  0.21004613  0.22644808    -0.77500
C225        C  0.32588377  0.20636246  0.22583423     0.83300
N226        N  0.33927273  0.18982544  0.25186177    -0.77400
C227        C  0.32483121  0.17722950  0.27832896     0.83400
N228        N  0.29579641  0.18069374  0.27874058    -0.79100
C229        C  0.54888880  0.10419070  0.42062816     0.03700
C230        C  0.56070116  0.10124857  0.45283940    -0.12400
C231        C  0.55348831  0.12814540  0.47737293     0.01200
C232        C  0.53327166  0.15659433  0.47020597    -0.10900
C233        C  0.52106334  0.15999998  0.43877963     0.03700
C234        C  0.52916884  0.13414182  0.41377380    -0.10400
H235        H  0.57720568  0.08024078  0.45804830     0.09300
H236        H  0.52804337  0.17767881  0.48897991     0.06800
H237        H  0.52053227  0.13767171  0.38908657     0.06700
Zn238      Zn  0.44156346  0.31351354  0.45956812     1.49700
Zn239      Zn  0.49667281  0.28066611  0.42740131     1.49400
Zn240      Zn  0.44147857  0.22519059  0.43629579     1.49100
Zn241      Zn  0.43848747  0.29560772  0.38657519     1.49500
O242        O  0.45512167  0.27784783  0.42708258    -1.83500
O243        O  0.47036691  0.32061136  0.49661072    -0.74200
O244        O  0.51193713  0.22511355  0.42290656    -0.74000
O245        O  0.41218943  0.22513788  0.47297855    -0.73500
O246        O  0.51005887  0.29811633  0.47410226    -0.74200
O247        O  0.40633488  0.28873663  0.47789422    -0.73800
O248        O  0.47534120  0.18914525  0.44198219    -0.74400
O249        O  0.41471711  0.25425326  0.36452788    -0.73700
O250        O  0.50960149  0.31742962  0.38934831    -0.74500
O251        O  0.41696468  0.20442430  0.39906426    -0.73900
O252        O  0.46935611  0.31736924  0.35860893    -0.74400
O253        O  0.41099311  0.33890171  0.39364679    -0.74300
O254        O  0.42816968  0.36442784  0.44021193    -0.74100
C255        C  0.49677494  0.31162891  0.49890361     0.77700
C256        C  0.50149346  0.19273805  0.43308715     0.78200
C257        C  0.39755401  0.25398051  0.48248038     0.77200
C258        C  0.40712426  0.22024027  0.37321411     0.77600
C259        C  0.49566397  0.32725883  0.36322252     0.78700
C260        C  0.41151804  0.36581702  0.41504921     0.77700
C261        C  0.28837987  0.48715836  0.48267532     0.80800
N262        N  0.30148358  0.47124922  0.45604566    -0.77500
C263        C  0.33072629  0.46960560  0.45553612     0.83300
N264        N  0.34519150  0.48380982  0.98179381    -0.77400
C265        C  0.33292443  0.49862072  0.00869590     0.83400
N266        N  0.30383711  0.50105685  0.00929038    -0.79100
C267        C  0.50887971  0.35206268  0.33747703     0.03700
C268        C  0.53012009  0.38072106  0.34524592    -0.12400
C269        C  0.53872597  0.40784865  0.32125087     0.01200
C270        C  0.52568504  0.40628521  0.28982520    -0.10900
C271        C  0.50439740  0.37845739  0.28188464     0.03700
C272        C  0.49652804  0.35100816  0.30544524    -0.10400
H273        H  0.53915372  0.38271173  0.36992532     0.09300
H274        H  0.53113007  0.42818354  0.27175639     0.06800
H275        H  0.47932742  0.33039489  0.29941801     0.06700
Zn276      Zn  0.64220192  0.03848166  0.34084354     1.49700
Zn277      Zn  0.60152561  0.99634806  0.29513879     1.49400
Zn278      Zn  0.58751471  0.00260106  0.37130479     1.49100
Zn279      Zn  0.58809458  0.08115861  0.32553339     1.49500
O280        O  0.60265776  0.02943131  0.33321285    -1.83500
O281        O  0.66400904  0.03533446  0.29987471    -0.74200
O282        O  0.57686216  0.44913629  0.30486829    -0.74000
O283        O  0.62034798  0.97522259  0.39634293    -0.73500
O284        O  0.64205375  0.48292312  0.27892482    -0.74200
O285        O  0.65779147  0.99865165  0.36956095    -0.73800
O286        O  0.55965680  0.45883121  0.35513072    -0.74400
O287        O  0.56363752  0.09532339  0.36518268    -0.73700
O288        O  0.57938876  0.02415379  0.26002525    -0.74500
O289        O  0.56895804  0.04529491  0.39969727    -0.73900
O290        O  0.56673925  0.08179511  0.28007319    -0.74400
O291        O  0.62189417  0.12089009  0.32702570    -0.74300
O292        O  0.65161100  0.08965344  0.36016064    -0.74100
C293        C  0.66401838  0.50561858  0.28141652     0.77700
C294        C  0.55990069  0.43976021  0.32802075     0.78200
C295        C  0.64737845  0.97627300  0.39112422     0.77200
C296        C  0.56054752  0.07990451  0.39356767     0.77600
C297        C  0.56617596  0.05609295  0.25713683     0.78700
C298        C  0.64478697  0.12017202  0.34493673     0.77700
C299        C  0.76178712  0.25731790  0.27967307     0.80800
N300        N  0.74639068  0.26930800  0.25302101    -0.77500
C301        C  0.71717887  0.26729389  0.25237761     0.83300
N302        N  0.70335555  0.25333517  0.27902916    -0.77400
C303        C  0.71813150  0.24093936  0.30598692     0.83400
N304        N  0.74754852  0.24209222  0.30588571    -0.79100
C305        C  0.65424203  0.19125895  0.34232513    -0.11700
C306        C  0.66496270  0.15390068  0.34589679     0.05300
C307        C  0.69515404  0.14900784  0.34663436    -0.07000
C308        C  0.71342853  0.17996322  0.33784092    -0.07700
C309        C  0.70214671  0.21624413  0.32963554    -0.02300
C310        C  0.67271173  0.22264441  0.33558764     0.04600
N311        N  0.66112622  0.26069955  0.33462240     0.67100
H312        H  0.63133515  0.19597120  0.34398641     0.16000
H313        H  0.73605191  0.17441582  0.33437577     0.15700
N314        N  0.70739776  0.11198118  0.35303945     0.74800
O315        O  0.64129565  0.26767193  0.31412027    -0.38700
O316        O  0.66344046  0.28157130  0.36012639    -0.38600
O317        O  0.71098005  0.08831922  0.32977575    -0.39300
O318        O  0.71214893  0.10157263  0.38231157    -0.39400
C319        C  0.37543387  0.46183182  0.42529702    -0.11700
C320        C  0.34699384  0.44863463  0.43032101     0.05300
C321        C  0.33928064  0.41044976  0.42065437    -0.07000
C322        C  0.36080837  0.38476103  0.41158005    -0.07700
C323        C  0.38989790  0.39638500  0.41284817    -0.02300
C324        C  0.39705040  0.43580097  0.41765007     0.04600
N325        N  0.42626960  0.44933639  0.41729548     0.67100
H326        H  0.38162641  0.49139801  0.43165918     0.16000
H327        H  0.35504729  0.35455094  0.40735814     0.15700
N328        N  0.30916919  0.39710036  0.92355965     0.74800
O329        O  0.43603751  0.46394534  0.39127607    -0.38700
O330        O  0.43950249  0.45554011  0.44419714    -0.38600
O331        O  0.29450105  0.39032085  0.89773332    -0.39300
O332        O  0.30164573  0.38147088  0.95011276    -0.39400
C333        C  0.33488270  0.20188165  0.33367898    -0.11700
C334        C  0.34166998  0.17494054  0.30916756     0.05300
C335        C  0.36916519  0.15788660  0.30982605    -0.07000
C336        C  0.38996636  0.17054698  0.33294728    -0.07700
C337        C  0.38394827  0.20075298  0.35457229    -0.02300
C338        C  0.35601525  0.21565195  0.35572981     0.04600
N339        N  0.34988716  0.24801949  0.37647639     0.67100
H340        H  0.31425016  0.21607785  0.33309545     0.16000
H341        H  0.41148615  0.15908046  0.33215492     0.15700
N342        N  0.37723350  0.13055123  0.28528934     0.74800
O343        O  0.35088103  0.28193010  0.36488643    -0.38700
O344        O  0.34791188  0.24340567  0.40709959    -0.38600
O345        O  0.39235393  0.14208424  0.26165743    -0.39300
O346        O  0.37668131  0.09488674  0.29219742    -0.39400
C347        C  0.38149521  0.50802462  0.03327698    -0.11700
C348        C  0.35166069  0.50382313  0.03828159     0.05300
C349        C  0.34216379  0.49349245  0.06976900    -0.07000
C350        C  0.36208779  0.48043088  0.09317399    -0.07700
C351        C  0.39156078  0.47803392  0.08594124    -0.02300
C352        C  0.40146599  0.49492228  0.05665948     0.04600
N353        N  0.43123078  0.49528042  0.04848753     0.67100
H354        H  0.38929220  0.51740599  0.00975734     0.16000
H355        H  0.35413152  0.46985341  0.11623531     0.15700
N356        N  0.31231824  0.49245907  0.07758202     0.74800
O357        O  0.44095561  0.46761814  0.03184275    -0.38700
O358        O  0.44551816  0.52670779  0.05064155    -0.38600
O359        O  0.29867553  0.46045843  0.07684903    -0.39300
O360        O  0.30186243  0.52086372  0.09264082    -0.39400
C361        C  0.35711150  0.28585091  0.17186696    -0.11700
C362        C  0.38674459  0.28023064  0.17798892     0.05300
C363        C  0.39513219  0.24484589  0.19215584    -0.07000
C364        C  0.37420353  0.21837478  0.20290554    -0.07700
C365        C  0.34469079  0.22704435  0.20186859    -0.02300
C366        C  0.33611297  0.25989246  0.18380225     0.04600
N367        N  0.30648990  0.26893857  0.17888365     0.67100
H368        H  0.34992296  0.31200252  0.15999947     0.16000
H369        H  0.38143990  0.19243037  0.21486749     0.15700
N370        N  0.42467119  0.23602476  0.19798370     0.74800
O371        O  0.29526114  0.29376041  0.19733715    -0.38700
O372        O  0.29468130  0.26123729  0.15140665    -0.38600
O373        O  0.43518118  0.24059706  0.22657737    -0.39300
O374        O  0.43699936  0.21374761  0.17820950    -0.39400
C375        C  0.69781617  0.96114790  0.40632809    -0.11700
C376        C  0.66822972  0.95400588  0.41134934     0.05300
C377        C  0.66016013  0.42987166  0.43767903    -0.07000
C378        C  0.68100284  0.41927357  0.46102874    -0.07700
C379        C  0.70942147  0.93378490  0.45948037    -0.02300
C380        C  0.71838610  0.95174482  0.43024434     0.04600
N381        N  0.74734636  0.96523282  0.42604797     0.67100
H382        H  0.70500478  0.97752637  0.38528604     0.16000
H383        H  0.67421296  0.40340229  0.48248520     0.15700
N384        N  0.63090237  0.41841416  0.44281326     0.74800
O385        O  0.76424044  0.94485977  0.40959539    -0.38700
O386        O  0.75345763  0.00066483  0.43088232    -0.38600
O387        O  0.62330505  0.38356733  0.43751840    -0.39300
O388        O  0.61539039  0.43942398  0.46046357    -0.39400
C389        C  0.71411581  0.24123639  0.19641463    -0.11700
C390        C  0.70184589  0.26492392  0.22027373     0.05300
C391        C  0.67279510  0.27539830  0.21622709    -0.07000
C392        C  0.65580889  0.25808613  0.19128283    -0.07700
C393        C  0.66722713  0.23042415  0.17006121    -0.02300
C394        C  0.69724520  0.22357929  0.17173105     0.04600
N395        N  0.71070845  0.19592117  0.15094748     0.67100
H396        H  0.73634599  0.23276206  0.19890872     0.16000
H397        H  0.63332382  0.26541667  0.18933588     0.15700
N398        N  0.66008730  0.30366293  0.23689680     0.74800
O399        O  0.72606149  0.20784183  0.12764711    -0.38700
O400        O  0.71350923  0.16155454  0.16095792    -0.38600
O401        O  0.66405987  0.33906318  0.23019755    -0.39300
O402        O  0.63813997  0.29397576  0.25291383    -0.39400
C403        C  0.65189189  0.99871005  0.07917134    -0.11700
C404        C  0.66218503  0.03437139  0.09143551     0.05300
C405        C  0.69227140  0.03988344  0.09629448    -0.07000
C406        C  0.71124809  0.01216092  0.08456997    -0.07700
C407        C  0.70089851  0.97886276  0.06802788    -0.02300
C408        C  0.67086564  0.97071220  0.06804469     0.04600
N409        N  0.65899877  0.93500497  0.05541433     0.67100
H410        H  0.62897071  0.99323519  0.07666909     0.16000
H411        H  0.73405085  0.01886356  0.08547944     0.15700
N412        N  0.70424395  0.07516762  0.10966048     0.74800
O413        O  0.65579131  0.90687347  0.07485576    -0.38700
O414        O  0.64630694  0.93791792  0.52974307    -0.38600
O415        O  0.71410818  0.07534431  0.13874773    -0.39300
O416        O  0.71159014  0.10209700  0.09042682    -0.39400
C417        C  0.32042928  0.21856933  0.48999885    -0.11700
C418        C  0.30783600  0.25172042  0.50358093     0.05300
C419        C  0.32471693  0.28370666  0.01519342    -0.07000
C420        C  0.35581340  0.27986832  0.51201770    -0.07700
C421        C  0.36826106  0.24835036  0.49599307    -0.02300
C422        C  0.35046765  0.21617096  0.48707235     0.04600
N423        N  0.36246795  0.18140224  0.47430710     0.67100
H424        H  0.30688467  0.19448551  0.48150321     0.16000
H425        H  0.36776989  0.30627470  0.01860931     0.15700
N426        N  0.31361622  0.31803517  0.02970281     0.74800
O427        O  0.37507753  0.15835822  0.49353806    -0.38700
O428        O  0.36351289  0.17595136  0.44367100    -0.38600
O429        O  0.31505161  0.32205988  0.06053097    -0.39300
O430        O  0.31008034  0.34761577  0.01204077    -0.39400
C431        C  0.18150676  0.23910221  0.45296129    -0.11700
C432        C  0.21053585  0.22802524  0.45255222     0.05300
C433        C  0.21773265  0.19579485  0.43302245    -0.07000
C434        C  0.19572168  0.17240598  0.41892619    -0.07700
C435        C  0.16647509  0.18015387  0.42427250    -0.02300
C436        C  0.15953769  0.21522570  0.43982702     0.04600
N437        N  0.12830649  0.22692800  0.94666414     0.67100
H438        H  0.17330818  0.26616619  0.96747654     0.16000
H439        H  0.20170688  0.14629495  0.40612943     0.15700
N440        N  0.24689086  0.18463620  0.42890739     0.74800
O441        O  0.11708516  0.21881156  0.97388135    -0.38700
O442        O  0.11988558  0.25197217  0.42591338    -0.38600
O443        O  0.25642149  0.15633603  0.44509984    -0.39300
O444        O  0.25995217  0.19556702  0.40352714    -0.39400
C445        C  0.24566932  0.52833828  0.99875122    -0.11700
C446        C  0.25682058  0.49301388  0.48279708     0.05300
C447        C  0.23685977  0.46741899  0.46701297    -0.07000
C448        C  0.20762545  0.47670487  0.46536116    -0.07700
C449        C  0.19781574  0.51149350  0.47873955    -0.02300
C450        C  0.21741777  0.53599423  0.49606251     0.04600
N451        N  0.20754096  0.07296710  0.01219788     0.67100
H452        H  0.26053688  0.54807746  0.01133847     0.16000
H453        H  0.19288976  0.45792430  0.45154930     0.15700
N454        N  0.24578262  0.43226479  0.45196255     0.74800
O455        O  0.20189570  0.07228046  0.04242720    -0.38700
O456        O  0.21262195  0.10517779  0.99861858    -0.38600
O457        O  0.24349764  0.40092550  0.46772932    -0.39300
O458        O  0.24794732  0.43100361  0.42111365    -0.39400
C459        C  0.73432998  0.52456322  0.24113510    -0.11700
C460        C  0.75236018  0.50062435  0.26021910     0.05300
C461        C  0.73920375  0.47197002  0.28021885    -0.07000
C462        C  0.70920768  0.47034342  0.28314910    -0.07700
C463        C  0.69170603  0.49661028  0.26649989    -0.02300
C464        C  0.70421420  0.02284518  0.24404974     0.04600
N465        N  0.68644971  0.04888612  0.22588224     0.67100
H466        H  0.74349051  0.04647010  0.22470429     0.16000
H467        H  0.69975644  0.45050512  0.30073480     0.15700
N468        N  0.75580125  0.44493989  0.29865099     0.74800
O469        O  0.68290143  0.08285460  0.23658897    -0.38700
O470        O  0.66985650  0.03562308  0.20349475    -0.38600
O471        O  0.75921498  0.45020110  0.32919361    -0.39300
O472        O  0.75960762  0.41157171  0.28677672    -0.39400
C473        C  0.89943384  0.45938058  0.31817438    -0.11700
C474        C  0.88877878  0.42567168  0.33286632     0.05300
C475        C  0.85915117  0.42256045  0.33946542    -0.07000
C476        C  0.84023795  0.45019244  0.32649831    -0.07700
C477        C  0.85060283  0.48159085  0.30770661    -0.02300
C478        C  0.88088761  0.48762187  0.30623030     0.04600
N479        N  0.89344365  0.52067167  0.29048776     0.67100
H480        H  0.92231624  0.46275819  0.31408356     0.16000
H481        H  0.81732298  0.44515624  0.32890924     0.15700
N482        N  0.84769286  0.38952918  0.35626692     0.74800
O483        O  0.90068582  0.54980338  0.30782753    -0.38700
O484        O  0.90491995  0.51622922  0.26285693    -0.38600
O485        O  0.84873929  0.38862180  0.38726642    -0.39300
O486        O  0.84101566  0.35907138  0.34035709    -0.39400
C487        C  0.84156428  0.23377889  0.29036045    -0.11700
C488        C  0.85496901  0.26701676  0.27700907     0.05300
C489        C  0.83717470  0.29535477  0.26233632    -0.07000
C490        C  0.80710448  0.29095582  0.26308469    -0.07700
C491        C  0.79383747  0.25909629  0.27854875    -0.02300
C492        C  0.81149080  0.22969389  0.29140672     0.04600
N493        N  0.79946645  0.19505847  0.30513518     0.67100
H494        H  0.85440503  0.21134423  0.30147612     0.16000
H495        H  0.79402557  0.31343216  0.25238497     0.15700
N496        N  0.84896689  0.32939402  0.24728003     0.74800
O497        O  0.79617049  0.16544565  0.28700662    -0.38700
O498        O  0.80007312  0.19087616  0.33593526    -0.38600
O499        O  0.85003379  0.33088468  0.21633209    -0.39300
O500        O  0.85070912  0.36057761  0.26364070    -0.39400
C501        C  0.31784681  0.49618271  0.22552024    -0.11700
C502        C  0.30056442  0.46810455  0.24101653     0.05300
C503        C  0.31396594  0.43602101  0.25603776    -0.07000
C504        C  0.34359385  0.43079567  0.25242778    -0.07700
C505        C  0.36036767  0.45736989  0.23466677    -0.02300
C506        C  0.34750092  0.49117702  0.22238528     0.04600
N507        N  0.36357001  0.51872146  0.20362367     0.67100
H508        H  0.30811985  0.52132873  0.21441902     0.16000
H509        H  0.35311802  0.40436181  0.26139807     0.15700
N510        N  0.29765584  0.90639936  0.27210925     0.74800
O511        O  0.36404596  0.51514158  0.17275995    -0.38700
O512        O  0.37068591  0.55091214  0.21654964    -0.38600
O513        O  0.29077219  0.37572785  0.25675649    -0.39300
O514        O  0.29653310  0.90666956  0.30307604    -0.39400
C515        C  0.17385681  0.45456657  0.28321743    -0.11700
C516        C  0.20362268  0.95923469  0.29043671     0.05300
C517        C  0.21229827  0.97003835  0.32255011    -0.07000
C518        C  0.19159357  0.98157023  0.34490262    -0.07700
C519        C  0.16228083  0.98345212  0.33570651    -0.02300
C520        C  0.15317441  0.46725549  0.30520239     0.04600
N521        N  0.12373823  0.46735907  0.29454113     0.67100
H522        H  0.16669865  0.44519730  0.25894837     0.16000
H523        H  0.19890054  0.99201692  0.36880013     0.15700
N524        N  0.24197145  0.97394495  0.33185775     0.74800
O525        O  0.11481708  0.49548920  0.27767289    -0.38700
O526        O  0.10952600  0.43580088  0.29408249    -0.38600
O527        O  0.25368296  0.94691166  0.34770112    -0.39300
O528        O  0.25390689  0.00714002  0.33173868    -0.39400
C529        C  0.22567061  0.26062429  0.08820641    -0.11700
C530        C  0.21734222  0.28351460  0.06138517     0.05300
C531        C  0.18968660  0.30009913  0.06123242    -0.07000
C532        C  0.16968035  0.28887789  0.08486120    -0.07700
C533        C  0.17681405  0.26120132  0.10841005    -0.02300
C534        C  0.20544142  0.24856204  0.11127006     0.04600
N535        N  0.21354634  0.22012416  0.13505683     0.67100
H536        H  0.24666294  0.24757230  0.08881056     0.16000
H537        H  0.14792597  0.29939867  0.08314783     0.15700
N538        N  0.18076572  0.32594144  0.03581048     0.74800
O539        O  0.20917046  0.18464447  0.12854043    -0.38700
O540        O  0.23131248  0.22943597  0.15764691    -0.38600
O541        O  0.16265965  0.31404927  0.01444679    -0.39300
O542        O  0.18393643  0.36200082  0.04048249    -0.39400
C543        C  0.18352638  0.00019703  0.17629129    -0.11700
C544        C  0.21210190  0.01220109  0.18295376     0.05300
C545        C  0.22063074  0.05033212  0.17466876    -0.07000
C546        C  0.19951614  0.07738840  0.16600936    -0.07700
C547        C  0.17013159  0.06656506  0.16528635    -0.02300
C548        C  0.16243362  0.02713480  0.16844992     0.04600
N549        N  0.13304073  0.01442413  0.16670196     0.67100
H550        H  0.17675343  0.97067950  0.18172344     0.16000
H551        H  0.20584679  0.10755226  0.16277921     0.15700
N552        N  0.24994531  0.06296391  0.17864140     0.74800
O553        O  0.12354267  0.99848338  0.14063127    -0.38700
O554        O  0.11942546  0.00975039  0.19300561    -0.38600
O555        O  0.26849885  0.05154234  0.15868181    -0.39300
O556        O  0.25797032  0.08097004  0.20434616    -0.39400
C557        C  0.20144545  0.17906865  0.26552467    -0.11700
C558        C  0.18985464  0.21132135  0.24938359     0.05300
C559        C  0.20876291  0.24147306  0.23943530    -0.07000
C560        C  0.23855222  0.23617460  0.24139632    -0.07700
C561        C  0.25005296  0.20187309  0.25415810    -0.02300
C562        C  0.23116482  0.17410618  0.26810752     0.04600
N563        N  0.24139184  0.13907084  0.28247660     0.67100
H564        H  0.18736043  0.15598703  0.27404227     0.16000
H565        H  0.25271929  0.25870982  0.23223017     0.15700
N566        N  0.19832657  0.27683750  0.22585739     0.74800
O567        O  0.24392348  0.13716034  0.31335524    -0.38700
O568        O  0.23922830  0.10795320  0.26609865    -0.38600
O569        O  0.19876500  0.30703151  0.24353054    -0.39300
O570        O  0.19570890  0.28015492  0.19509148    -0.39400
C571        C  0.74136158  0.23382914  0.03938913    -0.11700
C572        C  0.75741494  0.20395048  0.02563402     0.05300
C573        C  0.74301544  0.17063411  0.01300650    -0.07000
C574        C  0.71318724  0.16678616  0.01597537    -0.07700
C575        C  0.69711936  0.19605464  0.03068258    -0.02300
C576        C  0.71135377  0.23038495  0.04160515     0.04600
N577        N  0.69598716  0.26106855  0.05667199     0.67100
H578        H  0.75218239  0.25978996  0.04870831     0.16000
H579        H  0.70266696  0.13993197  0.00817048     0.15700
N580        N  0.75896198  0.13827252  0.49980182     0.74800
O581        O  0.69500751  0.26300801  0.08760812    -0.38700
O582        O  0.68993689  0.29063482  0.03990882    -0.38600
O583        O  0.76510570  0.11048257  0.51860541    -0.39300
O584        O  0.76026630  0.13354202  0.46909785    -0.39400
C585        C  0.87891491  0.19490380  0.46620615    -0.11700
C586        C  0.84972176  0.20471494  0.46362306     0.05300
C587        C  0.83966842  0.22270938  0.43460410    -0.07000
C588        C  0.85940387  0.23447938  0.41086123    -0.07700
C589        C  0.88892840  0.22843129  0.41544081    -0.02300
C590        C  0.89859528  0.20689581  0.44254179     0.04600
N591        N  0.92848928  0.20015251  0.44810579     0.67100
H592        H  0.88695183  0.18083209  0.48815498     0.16000
H593        H  0.85182833  0.25047901  0.38965507     0.15700
N594        N  0.81020433  0.23289293  0.43022623     0.74800
O595        O  0.94301692  0.22373407  0.46579031    -0.38700
O596        O  0.93803216  0.16663237  0.44312623    -0.38600
O597        O  0.79322442  0.25257664  0.92068161    -0.39300
O598        O  0.80257328  0.26677671  0.43750419    -0.39400
C599        C  0.88666283  0.53728124  0.17280411    -0.11700
C600        C  0.88331890  0.50068052  0.15796885     0.05300
C601        C  0.85699073  0.48020359  0.16105382    -0.07000
C602        C  0.83550159  0.49478042  0.18074394    -0.07700
C603        C  0.84036320  0.52841715  0.19947692    -0.02300
C604        C  0.86558385  0.55095750  0.19411382     0.04600
N605        N  0.87037650  0.58727172  0.21052875     0.67100
H606        H  0.90629761  0.55404323  0.16955145     0.16000
H607        H  0.81655039  0.47679460  0.18476735     0.15700
N608        N  0.85259264  0.44273862  0.14666750     0.74800
O609        O  0.88659679  0.58879482  0.23568092    -0.38700
O610        O  0.86538938  0.61815194  0.19504507    -0.38600
O611        O  0.85617826  0.41318397  0.16438436    -0.39300
O612        O  0.83857032  0.43956674  0.11994817    -0.39400
C613        C  0.89955568  0.26831635  0.08518628    -0.11700
C614        C  0.88986231  0.30628846  0.08943393     0.05300
C615        C  0.85996920  0.31239332  0.09172446    -0.07000
C616        C  0.84040832  0.28194523  0.08508467    -0.07700
C617        C  0.85019701  0.24538411  0.07621093    -0.02300
C618        C  0.87972460  0.23757326  0.08005223     0.04600
N619        N  0.88962840  0.19877354  0.07646905     0.67100
H620        H  0.92242343  0.26272987  0.08504347     0.16000
H621        H  0.81775182  0.28840142  0.08255546     0.15700
N622        N  0.84883779  0.35011925  0.09707292     0.74800
O623        O  0.90111180  0.18874176  0.55695943    -0.38700
O624        O  0.88137815  0.17292856  0.09628471    -0.38600
O625        O  0.84362309  0.37132572  0.07253981    -0.39300
O626        O  0.83589598  0.35631190  0.12351063    -0.39400
C627        C  0.84319874  0.98382052  0.04468948    -0.11700
C628        C  0.85915788  0.45894662  0.02506849     0.05300
C629        C  0.84418724  0.43409989  0.00272951    -0.07000
C630        C  0.81403703  0.43380497  0.00120907    -0.07700
C631        C  0.79786431  0.45733990  0.02203216    -0.02300
C632        C  0.81296956  0.98303292  0.04370103     0.04600
N633        N  0.79819342  0.00860928  0.06510648     0.67100
H634        H  0.85412953  0.00263336  0.06245964     0.16000
H635        H  0.80325388  0.41405803  0.98408287     0.15700
N636        N  0.85916950  0.40888801  0.98125806     0.74800
O637        O  0.79348993  0.99812455  0.09424597    -0.38700
O638        O  0.79721713  0.04421023  0.05810457    -0.38600
O639        O  0.85962564  0.37302316  0.98738284    -0.39300
O640        O  0.86495503  0.42043196  0.95268942    -0.39400
C641        C  0.05007336  0.11222815  0.58439653     0.03700
C642        C  0.06214889  0.11234994  0.55268624    -0.12400
C643        C  0.05426485  0.08391361  0.52931949     0.01200
C644        C  0.03372844  0.05541851  0.53732766    -0.10900
C645        C  0.02079193  0.05490166  0.56818684     0.03700
C646        C  0.02888307  0.08354645  0.59179710    -0.10400
H647        H  0.07903945  0.13315827  0.54679690     0.09300
H648        H  0.02839443  0.03262532  0.51964916     0.06800
H649        H  0.01998362  0.08216609  0.61620549     0.06700
Zn650      Zn  0.93828569  0.40120956  0.54689486     1.49700
Zn651      Zn  0.93699609  0.41326429  0.62052855     1.49400
Zn652      Zn  0.99527602  0.43370798  0.58156096     1.49100
Zn653      Zn  0.94017925  0.48768905  0.57563067     1.49500
O654        O  0.95347410  0.43464165  0.58154335    -1.83500
O655        O  0.92552351  0.34788973  0.56292974    -0.74200
O656        O  0.96870653  0.39272682  0.64892583    -0.74000
O657        O  0.00775202  0.41749469  0.53485923    -0.73500
O658        O  0.90979422  0.36814569  0.61100576    -0.74200
O659        O  0.96671901  0.39832031  0.51016576    -0.73800
O660        O  0.00895153  0.39676620  0.61973530    -0.74400
O661        O  0.97416573  0.52493200  0.56729462    -0.73700
O662        O  0.91198396  0.45191498  0.64218550    -0.74500
O663        O  0.01125552  0.49004932  0.58550575    -0.73900
O664        O  0.91898390  0.50703006  0.61505173    -0.74400
O665        O  0.90669245  0.48758018  0.54266307    -0.74300
O666        O  0.90128376  0.42455990  0.53142412    -0.74100
C667        C  0.90961051  0.34328827  0.58787592     0.77700
C668        C  0.99519227  0.38495497  0.64511659     0.78200
C669        C  0.99362953  0.40612121  0.50914256     0.77200
C670        C  0.00082020  0.52204562  0.57513353     0.77600
C671        C  0.90628866  0.48736720  0.63703929     0.78700
C672        C  0.89154482  0.45884445  0.53172389     0.77700
C673        C  0.78974533  0.20810548  0.52307318     0.80800
N674        N  0.80434747  0.22217509  0.55007986    -0.77500
C675        C  0.83345287  0.22616771  0.54969927     0.83300
N676        N  0.84657056  0.21847853  0.02184902    -0.77400
C677        C  0.83158593  0.20861247  0.99430718     0.83400
N678        N  0.80263149  0.20359041  0.99555233    -0.79100
C679        C  0.00886237  0.36055883  0.67113675     0.03700
C680        C  0.03003843  0.33280901  0.66416025    -0.12400
C681        C  0.03901363  0.30650227  0.68875840     0.01200
C682        C  0.02729820  0.30866913  0.72026623    -0.10900
C683        C  0.00576324  0.33513733  0.72729400     0.03700
C684        C  0.99689836  0.36104008  0.70282630    -0.10400
H685        H  0.03839948  0.33044043  0.63955723     0.09300
H686        H  0.03355293  0.28768584  0.73874549     0.06800
H687        H  0.97984133  0.38096915  0.70830813     0.06700
Zn688      Zn  0.11816906  0.24000674  0.68782885     1.49700
Zn689      Zn  0.06211958  0.18585665  0.67478121     1.49400
Zn690      Zn  0.12126276  0.16871995  0.63768744     1.49100
Zn691      Zn  0.11594765  0.15137546  0.71055818     1.49500
O692        O  0.10383396  0.18735235  0.67721436    -1.83500
O693        O  0.08459276  0.27670002  0.69233719    -0.74200
O694        O  0.04939271  0.14902722  0.63558407    -0.74000
O695        O  0.14649837  0.20969682  0.61802669    -0.73500
O696        O  0.04774128  0.24207217  0.67051769    -0.74200
O697        O  0.14468044  0.25970441  0.65272935    -0.73800
O698        O  0.09018691  0.14667156  0.60738706    -0.74400
O699        O  0.13150791  0.10087959  0.69253465    -0.73700
O700        O  0.04733739  0.16875099  0.72046190    -0.74500
O701        O  0.14916791  0.12566448  0.64678510    -0.73900
O702        O  0.08587986  0.14413424  0.74524186    -0.74400
O703        O  0.15029867  0.17633974  0.73150520    -0.74300
O704        O  0.14623685  0.24014707  0.72656716    -0.74100
C705        C  0.05843010  0.27387497  0.68230474     0.77700
C706        C  0.06354611  0.13779280  0.61046560     0.78200
C707        C  0.15492565  0.24327298  0.62759004     0.77200
C708        C  0.14883893  0.09942339  0.66860246     0.77600
C709        C  0.05967564  0.15427069  0.74590378     0.78700
C710        C  0.15998181  0.21065961  0.73655761     0.77700
C711        C  0.26839921  0.47034215  0.73993988     0.80800
N712        N  0.25151542  0.45917391  0.76553838    -0.77500
C713        C  0.22250940  0.96357580  0.76333562     0.83300
N714        N  0.21096204  0.97917237  0.73593931    -0.77400
C715        C  0.22714266  0.99109593  0.71063857     0.83400
N716        N  0.25615980  0.98736411  0.71276409    -0.79100
C717        C  0.04431926  0.13222111  0.83591882     0.03700
C718        C  0.02507395  0.16239252  0.84286182    -0.12400
C719        C  0.01471101  0.18656790  0.81753980     0.01200
C720        C  0.02423050  0.18115348  0.78528017    -0.10900
C721        C  0.04453474  0.15276077  0.77797529     0.03700
C722        C  0.05388524  0.12784741  0.80334276    -0.10400
H723        H  0.01827724  0.16719325  0.86787082     0.09300
H724        H  0.01728150  0.20104498  0.76627456     0.06800
H725        H  0.06997038  0.10641795  0.79810844     0.06700
Zn726      Zn  0.93335820  0.33150728  0.79355011     1.49700
Zn727      Zn  0.99090798  0.30743452  0.83110210     1.49400
Zn728      Zn  0.93298032  0.33038733  0.86851423     1.49100
Zn729      Zn  0.93607641  0.25134989  0.83087355     1.49500
O730        O  0.94924368  0.30508980  0.83124405    -1.83500
O731        O  0.96246551  0.33403204  0.75739748    -0.74200
O732        O  0.00546066  0.34443630  0.86892527    -0.74000
O733        O  0.90669170  0.37407806  0.85561189    -0.73500
O734        O  0.00355626  0.32471835  0.78522894    -0.74200
O735        O  0.92177720  0.38551862  0.80510742    -0.73800
O736        O  0.96480645  0.35332331  0.89622915    -0.74400
O737        O  0.92224627  0.23441572  0.87540053    -0.73700
O738        O  0.00659589  0.25181485  0.83440767    -0.74500
O739        O  0.90955408  0.29230412  0.89394327    -0.73900
O740        O  0.96857305  0.21558191  0.81800774    -0.74400
O741        O  0.89863590  0.24760775  0.80408023    -0.74300
O742        O  0.89526769  0.30550885  0.78073502    -0.74100
C743        C  0.98984750  0.33177376  0.75842548     0.77700
C744        C  0.99183389  0.35864402  0.89326236     0.78200
C745        C  0.90686991  0.39475182  0.82979752     0.77200
C746        C  0.90813323  0.25540827  0.89494699     0.77600
C747        C  0.99551955  0.21946893  0.82433002     0.78700
C748        C  0.88404688  0.27278543  0.78831511     0.77700
C749        C  0.78256031  0.50951617  0.75511897     0.80800
N750        N  0.79448953  0.52528361  0.72767199    -0.77500
C751        C  0.82344520  0.53178283  0.72624211     0.83300
N752        N  0.84023361  0.52142886  0.75201218    -0.77400
C753        C  0.82929705  0.50452224  0.77908805     0.83400
N754        N  0.80026051  0.49838139  0.78042825    -0.79100
C755        C  0.00676674  0.38224475  0.91922817     0.03700
C756        C  0.02795114  0.41043021  0.91163867    -0.12400
C757        C  0.03929512  0.43537555  0.93638736     0.01200
C758        C  0.02961379  0.43124227  0.96899064    -0.10900
C759        C  0.00782625  0.40414178  0.97677332     0.04500
C760        C  0.99673468  0.37977858  0.95168568    -0.10400
H761        H  0.03488393  0.41375496  0.88649422     0.09300
H762        H  0.03760047  0.45112068  0.98789838     0.06800
H763        H  0.97959174  0.35924133  0.95730981     0.06700
Zn764      Zn  0.14236136  0.06812065  0.91155645     1.49700
Zn765      Zn  0.10433780  0.02338997  0.95924756     1.49400
Zn766      Zn  0.08701029  0.10738748  0.93095548     1.49100
Zn767      Zn  0.08467339  0.03046699  0.88415678     1.49500
O768        O  0.10320199  0.05702128  0.92152271    -1.83500
O769        O  0.16913835  0.05759861  0.94924917    -0.74200
O770        O  0.08431086  0.04981739  0.99623061    -0.74000
O771        O  0.12010233  0.14750948  0.93556399    -0.73500
O772        O  0.14559927  0.50823087  0.97226070    -0.74200
O773        O  0.14976524  0.12297597  0.89937807    -0.73800
O774        O  0.06576738  0.10391114  0.97505029    -0.74400
O775        O  0.06448760  0.07309781  0.85667756    -0.73700
O776        O  0.07882414  0.47638914  0.95090719    -0.74500
O777        O  0.06228442  0.12383312  0.89100776    -0.73900
O778        O  0.05784400  0.48672317  0.90205032    -0.74400
O779        O  0.11524008  0.00346992  0.85648879    -0.74300
O780        O  0.15466028  0.03258949  0.87670668    -0.74100
C781        C  0.16877297  0.52778602  0.96762675     0.77700
C782        C  0.06840977  0.07943389  0.99850562     0.78200
C783        C  0.14310852  0.15008338  0.91888582     0.77200
C784        C  0.05722770  0.10816916  0.86280797     0.77600
C785        C  0.05997913  0.46745252  0.92889539     0.78700
C786        C  0.14257980  0.00791030  0.85747619     0.77700
C787        C  0.27450374  0.25738542  0.00323634     0.80800
N788        N  0.25781220  0.24404987  0.97738876    -0.77500
C789        C  0.22871477  0.24845972  0.97765230     0.83300
N790        N  0.21820213  0.26264751  0.50416513    -0.77400
C791        C  0.23391231  0.27505949  0.53046349     0.83400
N792        N  0.26292568  0.27086443  0.53037044    -0.79100
C793        C  0.50912412  0.33137371  0.59044434     0.03700
C794        C  0.50011325  0.33628276  0.55742444    -0.12400
C795        C  0.51112499  0.31323888  0.53199481     0.01200
C796        C  0.53259716  0.28648433  0.53976738    -0.10900
C797        C  0.54151168  0.28010891  0.57255899     0.03700
C798        C  0.52931448  0.30233514  0.59787682    -0.10400
H799        H  0.48332700  0.35673407  0.55174012     0.09300
H800        H  0.54074178  0.26815927  0.52044397     0.06800
H801        H  0.53570138  0.29730964  0.62321218     0.06700
Zn802      Zn  0.60525407  0.19274467  0.54928131     1.49700
Zn803      Zn  0.58795044  0.10802260  0.57741177     1.49400
Zn804      Zn  0.64275257  0.14902986  0.59855527     1.49100
Zn805      Zn  0.58719105  0.18591999  0.62373645     1.49500
O806        O  0.60387955  0.15938340  0.58694922    -1.83500
O807        O  0.58532380  0.16398061  0.51169182    -0.74200
O808        O  0.62079134  0.06883355  0.57748025    -0.74000
O809        O  0.66768690  0.15612504  0.56060770    -0.73500
O810        O  0.56784052  0.10811332  0.53169945    -0.74200
O811        O  0.64743460  0.20783733  0.53835577    -0.73800
O812        O  0.64954127  0.09627770  0.61488834    -0.74400
O813        O  0.61949997  0.21215241  0.65146196    -0.73700
O814        O  0.56219357  0.09284365  0.61570529    -0.74500
O815        O  0.65830700  0.18554600  0.63119768    -0.73900
O816        O  0.56647615  0.14341821  0.65038291    -0.74400
O817        O  0.56087011  0.22925781  0.60647767    -0.74300
O818        O  0.57977206  0.23917657  0.55712292    -0.74100
C819        C  0.57027502  0.13277071  0.50837950     0.77700
C820        C  0.64313579  0.06787611  0.59623630     0.78200
C821        C  0.66928056  0.18640052  0.54311139     0.77200
C822        C  0.64684839  0.20891685  0.65082393     0.77600
C823        C  0.55801428  0.10853191  0.64378382     0.78700
C824        C  0.56204159  0.24821634  0.57948178     0.77700
C825        C  0.76734331  0.45858910  0.52079682     0.80800
N826        N  0.75087423  0.96781696  0.54723242    -0.77500
C827        C  0.72167952  0.96269563  0.54565656     0.83300
N828        N  0.70782199  0.94547438  0.01624395    -0.77400
C829        C  0.72364183  0.93562191  0.99002815     0.83400
N830        N  0.75268455  0.44019827  0.99197137    -0.79100
C831        C  0.54517790  0.08431015  0.67017256     0.03700
C832        C  0.52514851  0.05402048  0.66247224    -0.12400
C833        C  0.51566494  0.02834482  0.68706386     0.01200
C834        C  0.52731604  0.03227141  0.71899670    -0.10900
C835        C  0.54815320  0.06089845  0.72683940     0.03700
C836        C  0.55631700  0.08771592  0.70265837    -0.10400
H837        H  0.51703987  0.05044048  0.63749914     0.09300
H838        H  0.52145321  0.01119986  0.73758657     0.06800
H839        H  0.57326794  0.10883304  0.70829881     0.06700
Zn840      Zn  0.45118261  0.44108110  0.71226947     1.49700
Zn841      Zn  0.40967053  0.39724622  0.66427182     1.49400
Zn842      Zn  0.46802812  0.43195324  0.63751513     1.49100
Zn843      Zn  0.46505093  0.35471952  0.68375567     1.49500
O844        O  0.44957557  0.40615898  0.67467057    -1.83500
O845        O  0.41102661  0.45858802  0.72689072    -0.74200
O846        O  0.39758640  0.43118266  0.62783907    -0.74000
O847        O  0.49559414  0.47598246  0.65381690    -0.73500
O848        O  0.38473168  0.41365560  0.70040545    -0.74200
O849        O  0.47711542  0.48716964  0.70303098    -0.73800
O850        O  0.43756133  0.45863648  0.60919123    -0.74400
O851        O  0.48998927  0.33852698  0.64457078    -0.73700
O852        O  0.39841874  0.34192520  0.65597103    -0.74500
O853        O  0.48797328  0.38950790  0.61078377    -0.73900
O854        O  0.43182952  0.31411710  0.68675844    -0.74400
O855        O  0.48699445  0.35725406  0.72829496    -0.74300
O856        O  0.47232376  0.41384946  0.74868208    -0.74100
C857        C  0.38689903  0.44154891  0.72073674     0.77700
C858        C  0.41019947  0.45504261  0.60895855     0.78200
C859        C  0.49477349  0.49585065  0.68043621     0.77200
C860        C  0.49535417  0.35452959  0.61688457     0.77600
C861        C  0.40719443  0.31291191  0.67223823     0.78700
C862        C  0.48656360  0.38269140  0.75134131     0.77700
C863        C  0.28111428  0.19741097  0.75172421     0.80800
N864        N  0.29639470  0.21091251  0.72547145    -0.77500
C865        C  0.32546540  0.20639900  0.72465453     0.83300
N866        N  0.33874189  0.18971514  0.75070938    -0.77400
C867        C  0.32428418  0.17771406  0.77735290     0.83400
N868        N  0.29532759  0.18185217  0.77788384    -0.79100
C869        C  0.54707498  0.10320045  0.92054412     0.03700
C870        C  0.55907628  0.10060476  0.95265924    -0.12400
C871        C  0.55213075  0.12785452  0.97698315     0.01200
C872        C  0.53195091  0.15632286  0.96981887    -0.10900
C873        C  0.51946936  0.15940487  0.93851324     0.03700
C874        C  0.52734786  0.13318685  0.91361776    -0.10400
H875        H  0.57556673  0.07959152  0.95792452     0.09300
H876        H  0.52694133  0.17763697  0.98849414     0.06800
H877        H  0.51858038  0.13649820  0.88896786     0.06700
Zn878      Zn  0.44058355  0.31385720  0.95961588     1.49700
Zn879      Zn  0.49543157  0.28029523  0.92735103     1.49400
Zn880      Zn  0.44008771  0.22531414  0.93626383     1.49100
Zn881      Zn  0.43709689  0.29602602  0.88677870     1.49500
O882        O  0.45387572  0.27795873  0.92712237    -1.83500
O883        O  0.46950621  0.32080937  0.99659939    -0.74200
O884        O  0.51047145  0.22459495  0.92267955    -0.74000
O885        O  0.41051731  0.22557928  0.97269771    -0.73500
O886        O  0.50897321  0.29769198  0.97402852    -0.74200
O887        O  0.40534385  0.28927336  0.97794288    -0.73800
O888        O  0.47382803  0.18890241  0.94194462    -0.74400
O889        O  0.41348620  0.25467647  0.86452625    -0.73700
O890        O  0.50843171  0.31690437  0.88930444    -0.74500
O891        O  0.41576223  0.20466291  0.89887039    -0.73900
O892        O  0.46800841  0.31780509  0.85888505    -0.74400
O893        O  0.40947816  0.33925336  0.89406559    -0.74300
O894        O  0.42709900  0.36487131  0.94036961    -0.74100
C895        C  0.49585170  0.31148988  0.99883858     0.77700
C896        C  0.49995145  0.19226530  0.93286525     0.78200
C897        C  0.39617835  0.25465504  0.98231937     0.77200
C898        C  0.40599407  0.22055845  0.87302563     0.77600
C899        C  0.49444245  0.32712642  0.86333445     0.78700
C900        C  0.41018113  0.36622358  0.91542875     0.77700
C901        C  0.28739450  0.48871515  0.98298402     0.80800
N902        N  0.30034205  0.47262222  0.95629724    -0.77500
C903        C  0.32958365  0.47069682  0.95567792     0.83300
N904        N  0.34621875  0.48287631  0.48169542    -0.77400
C905        C  0.33377822  0.49759382  0.50854290     0.83400
N906        N  0.30467590  0.49968625  0.50902578    -0.79100
C907        C  0.50781502  0.35166278  0.83755722     0.03700
C908        C  0.52916965  0.38014673  0.84531080    -0.12400
C909        C  0.53799273  0.40704074  0.82124912     0.01200
C910        C  0.52510223  0.40540263  0.78976750    -0.10900
C911        C  0.50368904  0.37776614  0.78186479     0.03700
C912        C  0.49555279  0.35055161  0.80549602    -0.10400
H913        H  0.53810131  0.38222074  0.87003351     0.09300
H914        H  0.53072063  0.42715337  0.77163926     0.06800
H915        H  0.47824638  0.33009051  0.79949070     0.06700
Zn916      Zn  0.64109772  0.03673463  0.84149543     1.49700
Zn917      Zn  0.60041980  0.99568564  0.79531050     1.49400
Zn918      Zn  0.58633507  0.00152003  0.87165249     1.49100
Zn919      Zn  0.58685779  0.07995598  0.82615862     1.49500
O920        O  0.60152685  0.02824979  0.83363147    -1.83500
O921        O  0.66289514  0.03506289  0.80036203    -0.74200
O922        O  0.57620515  0.44824351  0.80500419    -0.74000
O923        O  0.61908734  0.97360105  0.89655676    -0.73500
O924        O  0.64093275  0.48351981  0.77823771    -0.74200
O925        O  0.65671304  0.99582802  0.86940589    -0.73800
O926        O  0.55865220  0.45809335  0.85512007    -0.74400
O927        O  0.56167505  0.09386370  0.86513955    -0.73700
O928        O  0.57810814  0.02360096  0.76049729    -0.74500
O929        O  0.56757523  0.04430639  0.89998115    -0.73900
O930        O  0.56615434  0.08158029  0.78033742    -0.74400
O931        O  0.62048352  0.11952641  0.82933068    -0.74300
O932        O  0.65011556  0.08735601  0.86199554    -0.74100
C933        C  0.66281070  0.50634789  0.78094129     0.77700
C934        C  0.55911420  0.43893969  0.82806532     0.78200
C935        C  0.64607765  0.97368977  0.89102724     0.77200
C936        C  0.55877883  0.07870140  0.89362560     0.77600
C937        C  0.56531929  0.05582137  0.75746265     0.78700
C938        C  0.64309985  0.11840818  0.84767199     0.77700
C939        C  0.75888875  0.25770396  0.78612730     0.80800
N940        N  0.74361002  0.26913498  0.75915230    -0.77500
C941        C  0.71437311  0.26693405  0.75817233     0.83300
N942        N  0.70038472  0.25311449  0.78477144    -0.77400
C943        C  0.71502014  0.24122064  0.81201409     0.83400
N944        N  0.74442318  0.24280551  0.81228659    -0.79100
C945        C  0.65149089  0.18966425  0.84699738    -0.11700
C946        C  0.66273641  0.15254988  0.85016192     0.05300
C947        C  0.69297740  0.14845582  0.85156654    -0.07000
C948        C  0.71090798  0.18007108  0.84358576    -0.07700
C949        C  0.69916587  0.21611649  0.83544034    -0.02300
C950        C  0.66956178  0.22163993  0.84094332     0.04600
N951        N  0.65737160  0.25933480  0.83998856     0.67100
H952        H  0.62847524  0.19369677  0.84820532     0.16000
H953        H  0.73367143  0.17519672  0.84051948     0.15700
N954        N  0.70566862  0.11162874  0.85764498     0.74800
O955        O  0.63771434  0.26590051  0.81916420    -0.38700
O956        O  0.65892887  0.27997183  0.86567570    -0.38600
O957        O  0.71002286  0.08865390  0.83408699    -0.39300
O958        O  0.70982707  0.10051410  0.88683692    -0.39400
C959        C  0.37432863  0.46255151  0.92556699    -0.11700
C960        C  0.34578772  0.44963628  0.93040947     0.05300
C961        C  0.33796081  0.41152520  0.92066051    -0.07000
C962        C  0.35944413  0.38555536  0.91192889    -0.07700
C963        C  0.38859754  0.39692468  0.91337411    -0.02300
C964        C  0.39587310  0.43632156  0.91810878     0.04600
N965        N  0.42512860  0.44969907  0.91770670     0.67100
H966        H  0.38063052  0.49208910  0.93190490     0.16000
H967        H  0.35354788  0.35540804  0.90759940     0.15700
N968        N  0.31071503  0.39550293  0.42440303     0.74800
O969        O  0.43486189  0.46440115  0.89170670    -0.38700
O970        O  0.43843030  0.45575013  0.94458798    -0.38600
O971        O  0.29580487  0.38746400  0.39900181    -0.39300
O972        O  0.30379112  0.38057953  0.45146367    -0.39400
C973        C  0.33404235  0.20174003  0.83302419    -0.11700
C974        C  0.34114591  0.17535234  0.80819922     0.05300
C975        C  0.36877419  0.15866703  0.80882028    -0.07000
C976        C  0.38939252  0.17127307  0.83216618    -0.07700
C977        C  0.38303582  0.20098544  0.85412876    -0.02300
C978        C  0.35497388  0.21541330  0.85535647     0.04600
N979        N  0.34850031  0.24728739  0.87649242     0.67100
H980        H  0.31328914  0.21561700  0.83256085     0.16000
H981        H  0.41101075  0.16013826  0.83135390     0.15700
N982        N  0.37711805  0.13166017  0.78415778     0.74800
O983        O  0.34927109  0.28141972  0.86536064    -0.38700
O984        O  0.34646865  0.24207341  0.90703769    -0.38600
O985        O  0.39270566  0.14345812  0.76102001    -0.39300
O986        O  0.37640668  0.09590719  0.79072422    -0.39400
C987        C  0.38222243  0.50725868  0.53340985    -0.11700
C988        C  0.35235888  0.50320249  0.53820779     0.05300
C989        C  0.34264500  0.49366836  0.56979711    -0.07000
C990        C  0.36238137  0.48088457  0.59352643    -0.07700
C991        C  0.39186319  0.47814865  0.58650559    -0.02300
C992        C  0.40200769  0.49464273  0.55717280     0.04600
N993        N  0.43188058  0.49530738  0.54948170     0.67100
H994        H  0.39020348  0.51625094  0.50985511     0.16000
H995        H  0.35429102  0.47083684  0.61671159     0.15700
N996        N  0.31278083  0.49346106  0.57750952     0.74800
O997        O  0.44208995  0.46751202  0.53340726    -0.38700
O998        O  0.44592791  0.52692804  0.55163734    -0.38600
O999        O  0.29890054  0.46165425  0.57790102    -0.39300
O1000       O  0.30252222  0.52275589  0.59149654    -0.39400
C1001       C  0.35723288  0.28466658  0.66978863    -0.11700
C1002       C  0.38679043  0.27940337  0.67672276     0.05300
C1003       C  0.39505763  0.24427753  0.69142763    -0.07000
C1004       C  0.37403902  0.21794596  0.70217346    -0.07700
C1005       C  0.34450890  0.22647860  0.70050813    -0.02300
C1006       C  0.33612102  0.25871166  0.68155525     0.04600
N1007       N  0.30654915  0.26666805  0.67491032     0.67100
H1008       H  0.35017047  0.31043070  0.65724640     0.16000
H1009       H  0.38118208  0.19229328  0.71453937     0.15700
N1010       N  0.42454982  0.23554431  0.69771990     0.74800
O1011       O  0.29425520  0.29202535  0.69185031    -0.38700
O1012       O  0.29588397  0.25727056  0.64720847    -0.38600
O1013       O  0.43476028  0.24033229  0.72642577    -0.39300
O1014       O  0.43710289  0.21314404  0.67823913    -0.39400
C1015       C  0.69630800  0.95588089  0.90535441    -0.11700
C1016       C  0.66662052  0.95043721  0.91093859     0.05300
C1017       C  0.65828444  0.42685211  0.93740776    -0.07000
C1018       C  0.67905193  0.41537928  0.96054268    -0.07700
C1019       C  0.70780216  0.92849295  0.95858216    -0.02300
C1020       C  0.71691117  0.94534625  0.92894547     0.04600
N1021       N  0.74633590  0.95595947  0.92373341     0.67100
H1022       H  0.70366288  0.97156433  0.88401538     0.16000
H1023       H  0.67203571  0.40001518  0.98216858     0.15700
N1024       N  0.62884025  0.41660996  0.94285166     0.74800
O1025       O  0.76174420  0.93346688  0.90731574    -0.38700
O1026       O  0.75429601  0.99094174  0.92744369    -0.38600
O1027       O  0.62041939  0.38206222  0.93767825    -0.39300
O1028       O  0.61392192  0.43834185  0.96055747    -0.39400
C1029       C  0.71226982  0.24317984  0.70124238    -0.11700
C1030       C  0.69917920  0.26490125  0.72585772     0.05300
C1031       C  0.66984492  0.27412678  0.72178369    -0.07000
C1032       C  0.65353863  0.25728471  0.69601747    -0.07700
C1033       C  0.66587012  0.23143044  0.67389417    -0.02300
C1034       C  0.69608416  0.22616048  0.67562793     0.04600
N1035       N  0.71058394  0.20100142  0.65355993     0.67100
H1036       H  0.73474418  0.23584163  0.70357045     0.16000
H1037       H  0.63086111  0.26354748  0.69408265     0.15700
N1038       N  0.65615540  0.30078573  0.74313088     0.74800
O1039       O  0.72572579  0.21563487  0.63117064    -0.38700
O1040       O  0.71453420  0.16619612  0.66177395    -0.38600
O1041       O  0.66018479  0.33663132  0.73838919    -0.39300
O1042       O  0.63357196  0.28981291  0.75739028    -0.39400
C1043       C  0.65329881  0.99988567  0.58100613    -0.11700
C1044       C  0.66338844  0.03536008  0.59384489     0.05300
C1045       C  0.69340328  0.04077982  0.59942085    -0.07000
C1046       C  0.71257728  0.01345304  0.58744267    -0.07700
C1047       C  0.70245661  0.98065549  0.57002691    -0.02300
C1048       C  0.67244652  0.97225239  0.56967827     0.04600
N1049       N  0.66076565  0.93683606  0.55624207     0.67100
H1050       H  0.63041385  0.99438456  0.57805230     0.16000
H1051       H  0.73536288  0.02021391  0.58878891     0.15700
N1052       N  0.70514710  0.07567676  0.61375091     0.74800
O1053       O  0.65728513  0.90825663  0.57515223    -0.38700
O1054       O  0.64422685  0.93544952  0.02911912    -0.38600
O1055       O  0.71454901  0.07502144  0.64301947    -0.39300
O1056       O  0.71276580  0.10318398  0.59524423    -0.39400
C1057       C  0.31878393  0.22018988  0.98980591    -0.11700
C1058       C  0.30633560  0.25373826  0.00286753     0.05300
C1059       C  0.32610436  0.28162427  0.51626500    -0.07000
C1060       C  0.35441967  0.28155299  0.01114586    -0.07700
C1061       C  0.36676954  0.24957033  0.99567494    -0.02300
C1062       C  0.34882907  0.21740403  0.98710954     0.04600
N1063       N  0.36071347  0.18215244  0.97516772     0.67100
H1064       H  0.30513156  0.19604905  0.98166235     0.16000
H1065       H  0.36907521  0.30457304  0.51972547     0.15700
N1066       N  0.31487194  0.31557935  0.53125231     0.74800
O1067       O  0.37326486  0.15968511  0.99494415    -0.38700
O1068       O  0.36176459  0.17570179  0.94466894    -0.38600
O1069       O  0.31648611  0.31914290  0.56211292    -0.39300
O1070       O  0.31101463  0.34537875  0.51394376    -0.39400
C1071       C  0.17943696  0.24070707  0.95408421    -0.11700
C1072       C  0.20857297  0.23019796  0.95288567     0.05300
C1073       C  0.21573281  0.19826045  0.93298428    -0.07000
C1074       C  0.19371269  0.17473175  0.91910102    -0.07700
C1075       C  0.16449161  0.18194174  0.92508864    -0.02300
C1076       C  0.15748326  0.21661809  0.94122637     0.04600
N1077       N  0.13037608  0.22624846  0.44430194     0.67100
H1078       H  0.17545510  0.26487255  0.46588497     0.16000
H1079       H  0.19973199  0.14889202  0.90592571     0.15700
N1080       N  0.24489834  0.18747101  0.92830226     0.74800
O1081       O  0.11847916  0.21885116  0.47127838    -0.38700
O1082       O  0.11710452  0.25268640  0.92887844    -0.38600
O1083       O  0.25480460  0.15917371  0.94419698    -0.39300
O1084       O  0.25751078  0.19861391  0.90268975    -0.39400
C1085       C  0.24650524  0.52639980  0.49828589    -0.11700
C1086       C  0.25584178  0.49484943  0.98325656     0.05300
C1087       C  0.23572756  0.46929332  0.96769522    -0.07000
C1088       C  0.20653220  0.47878525  0.96608448    -0.07700
C1089       C  0.19685908  0.51367692  0.97940486    -0.02300
C1090       C  0.21657446  0.53805759  0.99669903     0.04600
N1091       N  0.20835164  0.07124848  0.51107664     0.67100
H1092       H  0.26127573  0.54624290  0.51090777     0.16000
H1093       H  0.19169441  0.45999558  0.95242667     0.15700
N1094       N  0.24442937  0.43381674  0.95302027     0.74800
O1095       O  0.20254218  0.07103952  0.54126490    -0.38700
O1096       O  0.21352624  0.10323426  0.49716736    -0.38600
O1097       O  0.24229667  0.40282669  0.96929549    -0.39300
O1098       O  0.24618898  0.43189054  0.92215414    -0.39400
C1099       C  0.73202693  0.52690084  0.73841299    -0.11700
C1100       C  0.75065083  0.50279929  0.75657936     0.05300
C1101       C  0.73813513  0.47382777  0.77680335    -0.07000
C1102       C  0.70826912  0.47187370  0.78072418    -0.07700
C1103       C  0.69023496  0.49824535  0.76504406    -0.02300
C1104       C  0.70206611  0.02453559  0.74265217     0.04600
N1105       N  0.68380149  0.05080770  0.72541375     0.67100
H1106       H  0.74081413  0.04847310  0.72214757     0.16000
H1107       H  0.69938608  0.45169104  0.79841999     0.15700
N1108       N  0.75528531  0.44696123  0.79472405     0.74800
O1109       O  0.68040299  0.08453614  0.73672612    -0.38700
O1110       O  0.66670975  0.03786909  0.70337887    -0.38600
O1111       O  0.75957160  0.45252115  0.82510707    -0.39300
O1112       O  0.75855327  0.41340518  0.78298695    -0.39400
C1113       C  0.89858363  0.46166354  0.81113140    -0.11700
C1114       C  0.88807009  0.42858303  0.82687152     0.05300
C1115       C  0.85856065  0.42576916  0.83407429    -0.07000
C1116       C  0.83954099  0.45328766  0.82120927    -0.07700
C1117       C  0.84966061  0.48428499  0.80181751    -0.02300
C1118       C  0.87993681  0.48987717  0.79931230     0.04600
N1119       N  0.89232711  0.52260638  0.78295034     0.67100
H1120       H  0.92138902  0.46468748  0.80643621     0.16000
H1121       H  0.81668011  0.44849188  0.82427982     0.15700
N1122       N  0.84727702  0.39304087  0.85143208     0.74800
O1123       O  0.89983303  0.55202818  0.79979483    -0.38700
O1124       O  0.90324483  0.51775826  0.75506369    -0.38600
O1125       O  0.84799578  0.39312399  0.88245071    -0.39300
O1126       O  0.84138122  0.36188526  0.83613653    -0.39400
C1127       C  0.83877917  0.23597354  0.80086646    -0.11700
C1128       C  0.85241251  0.26562463  0.78277350     0.05300
C1129       C  0.83475829  0.29105907  0.76444011    -0.07000
C1130       C  0.80464273  0.28734862  0.76568891    -0.07700
C1131       C  0.79108682  0.25906186  0.78523932    -0.02300
C1132       C  0.80866770  0.23260457  0.80241430     0.04600
N1133       N  0.79657360  0.20169694  0.82131051     0.67100
H1134       H  0.85149864  0.21599037  0.81517796     0.16000
H1135       H  0.79178372  0.30764421  0.75186858     0.15700
N1136       N  0.84677040  0.32145057  0.74485828     0.74800
O1137       O  0.79371425  0.16847476  0.80836176    -0.38700
O1138       O  0.79654671  0.20474530  0.85223155    -0.38600
O1139       O  0.84824148  0.31659529  0.71417268    -0.39300
O1140       O  0.84839583  0.35546277  0.75646699    -0.39400
C1141       C  0.31769860  0.49477500  0.72783847    -0.11700
C1142       C  0.30007374  0.46593382  0.74181852     0.05300
C1143       C  0.31302421  0.43244899  0.75494594    -0.07000
C1144       C  0.34261577  0.42700771  0.75121099    -0.07700
C1145       C  0.35979013  0.45460373  0.73503151    -0.02300
C1146       C  0.34731189  0.48946547  0.72446842     0.04600
N1147       N  0.36366661  0.51790938  0.70699393     0.67100
H1148       H  0.30824837  0.52084436  0.71805128     0.16000
H1149       H  0.35180847  0.39977112  0.75878155     0.15700
N1150       N  0.29619411  0.90197924  0.76906403     0.74800
O1151       O  0.36443323  0.51600037  0.67603903    -0.38700
O1152       O  0.37081203  0.54930996  0.72123934    -0.38600
O1153       O  0.28925973  0.37261218  0.75160110    -0.39300
O1154       O  0.29463294  0.89974490  0.79993555    -0.39400
C1155       C  0.17346041  0.45455877  0.78461533    -0.11700
C1156       C  0.20310415  0.95925178  0.79163433     0.05300
C1157       C  0.21174091  0.97069377  0.82359492    -0.07000
C1158       C  0.19104316  0.98304852  0.84566926    -0.07700
C1159       C  0.16172943  0.98484804  0.83640402    -0.02300
C1160       C  0.15275226  0.46777051  0.80636486     0.04600
N1161       N  0.12330626  0.46741841  0.79572123     0.67100
H1162       H  0.16634661  0.44472127  0.76045943     0.16000
H1163       H  0.19834934  0.99396501  0.86941652     0.15700
N1164       N  0.24141802  0.97423033  0.83297086     0.74800
O1165       O  0.11428646  0.49497867  0.77824922    -0.38700
O1166       O  0.10918760  0.43579317  0.79595876    -0.38600
O1167       O  0.25295735  0.94700671  0.84874635    -0.39300
O1168       O  0.25365195  0.00722727  0.83271696    -0.39400
C1169       C  0.22680212  0.26079962  0.58899529    -0.11700
C1170       C  0.21829784  0.28201145  0.56123677     0.05300
C1171       C  0.19056479  0.29839184  0.56048207    -0.07000
C1172       C  0.17071032  0.28855243  0.58465200    -0.07700
C1173       C  0.17800858  0.26244664  0.60936705    -0.02300
C1174       C  0.20670170  0.25017089  0.61271099     0.04600
N1175       N  0.21503071  0.22353746  0.63787489     0.67100
H1176       H  0.24786604  0.24798617  0.59012048     0.16000
H1177       H  0.14887818  0.29870238  0.58246598     0.15700
N1178       N  0.18132910  0.32243927  0.53395637     0.74800
O1179       O  0.21101694  0.18761666  0.63311675    -0.38700
O1180       O  0.23264290  0.23468451  0.66004042    -0.38600
O1181       O  0.16282970  0.30914287  0.51363455    -0.39300
O1182       O  0.18444932  0.35874700  0.53688132    -0.39400
C1183       C  0.18348252  0.00187882  0.67779729    -0.11700
C1184       C  0.21209898  0.01341320  0.68477213     0.05300
C1185       C  0.22088718  0.05168035  0.67729345    -0.07000
C1186       C  0.19997530  0.07916880  0.66898406    -0.07700
C1187       C  0.17053641  0.06862554  0.66777613    -0.02300
C1188       C  0.16259426  0.02921173  0.67027472     0.04600
N1189       N  0.13314681  0.01683191  0.66807799     0.67100
H1190       H  0.17651730  0.97230036  0.68268276     0.16000
H1191       H  0.20649328  0.10933603  0.66624386     0.15700
N1192       N  0.25029532  0.06383045  0.68147662     0.74800
O1193       O  0.12371579  0.00168299  0.64164627    -0.38700
O1194       O  0.11936401  0.01156227  0.69418868    -0.38600
O1195       O  0.26863513  0.05329430  0.66091532    -0.39300
O1196       O  0.25866299  0.07990346  0.70793676    -0.39400
C1197       C  0.20111198  0.18203506  0.76607565    -0.11700
C1198       C  0.18962150  0.21457510  0.75029163     0.05300
C1199       C  0.20868361  0.24451681  0.74027041    -0.07000
C1200       C  0.23845281  0.23862128  0.74156893    -0.07700
C1201       C  0.24974743  0.20389507  0.75375203    -0.02300
C1202       C  0.23076462  0.17638804  0.76790473     0.04600
N1203       N  0.24073387  0.14082930  0.78156153     0.67100
H1204       H  0.18693459  0.15911826  0.77471438     0.16000
H1205       H  0.25274750  0.26102073  0.73239241     0.15700
N1206       N  0.19838523  0.28035672  0.72749138     0.74800
O1207       O  0.24410542  0.13847300  0.81232282    -0.38700
O1208       O  0.23719150  0.10996538  0.76509409    -0.38600
O1209       O  0.19911927  0.31005699  0.74576086    -0.39300
O1210       O  0.19553417  0.28453490  0.69682796    -0.39400
C1211       C  0.74216959  0.23484003  0.53665987    -0.11700
C1212       C  0.75810087  0.20435819  0.52361267     0.05300
C1213       C  0.74358133  0.17041972  0.51248232    -0.07000
C1214       C  0.71381968  0.16660574  0.51633265    -0.07700
C1215       C  0.69796561  0.19646541  0.53050928    -0.02300
C1216       C  0.71225767  0.23134653  0.53984086     0.04600
N1217       N  0.69712677  0.26245199  0.55462121     0.67100
H1218       H  0.75306306  0.26118699  0.54501882     0.16000
H1219       H  0.70324738  0.13932387  0.50983784     0.15700
N1220       N  0.75851948  0.13920961  0.99925042     0.74800
O1221       O  0.69613917  0.26481969  0.58553623    -0.38700
O1222       O  0.69111475  0.29178781  0.53755257    -0.38600
O1223       O  0.76427056  0.11025796  0.01692463    -0.39300
O1224       O  0.76021183  0.13629544  0.96842021    -0.39400
C1225       C  0.87362138  0.19388228  0.96106450    -0.11700
C1226       C  0.84681683  0.21175390  0.96316852     0.05300
C1227       C  0.83937409  0.24053331  0.94020311    -0.07000
C1228       C  0.85964813  0.25311867  0.91753997    -0.07700
C1229       C  0.88725950  0.23743315  0.91716495    -0.02300
C1230       C  0.89384021  0.20628171  0.93808578     0.04600
N1231       N  0.92168246  0.18946945  0.93861417     0.67100
H1232       H  0.87967918  0.17223434  0.97897149     0.16000
H1233       H  0.85414511  0.27645411  0.90096559     0.15700
N1234       N  0.81269469  0.26035647  0.94179620     0.74800
O1235       O  0.94039111  0.20205898  0.95901741    -0.38700
O1236       O  0.92480451  0.15649444  0.92569628    -0.38600
O1237       O  0.79414579  0.21220096  0.41167540    -0.39300
O1238       O  0.81160610  0.29165678  0.95791448    -0.39400
C1239       C  0.88503843  0.54139197  0.66938927    -0.11700
C1240       C  0.88230170  0.50455706  0.65488830     0.05300
C1241       C  0.85590384  0.48402431  0.65703209    -0.07000
C1242       C  0.83370495  0.49877460  0.67561372    -0.07700
C1243       C  0.83800009  0.53247302  0.69442885    -0.02300
C1244       C  0.86328808  0.55515317  0.68974275     0.04600
N1245       N  0.86774273  0.59131199  0.70650939     0.67100
H1246       H  0.90473809  0.55820646  0.66680603     0.16000
H1247       H  0.81468980  0.48071895  0.67905519     0.15700
N1248       N  0.85203031  0.44645975  0.64267398     0.74800
O1249       O  0.88294842  0.59242967  0.73247547    -0.38700
O1250       O  0.86361019  0.62237354  0.69094796    -0.38600
O1251       O  0.85591221  0.41696296  0.66038643    -0.39300
O1252       O  0.83824133  0.44300936  0.61582817    -0.39400
C1253       C  0.89841770  0.27205024  0.58673166    -0.11700
C1254       C  0.88886197  0.31036706  0.58860248     0.05300
C1255       C  0.85896204  0.31704554  0.58822869    -0.07000
C1256       C  0.83954402  0.28664067  0.58100173    -0.07700
C1257       C  0.84947186  0.24944613  0.57457900    -0.02300
C1258       C  0.87859839  0.24138680  0.58117905     0.04600
N1259       N  0.88806989  0.20217078  0.58131758     0.67100
H1260       H  0.92118029  0.26608629  0.58889412     0.16000
H1261       H  0.81712269  0.29326626  0.57652048     0.15700
N1262       N  0.84788728  0.35505877  0.59200919     0.74800
O1263       O  0.90357089  0.18927519  0.05144124    -0.38700
O1264       O  0.88003461  0.17959250  0.60387603    -0.38600
O1265       O  0.84398475  0.37556241  0.56674512    -0.39300
O1266       O  0.83371067  0.36215974  0.61741365    -0.39400
C1267       C  0.84485739  0.98895836  0.54392532    -0.11700
C1268       C  0.86056090  0.46411168  0.52382993     0.05300
C1269       C  0.84533413  0.43934536  0.50172700    -0.07000
C1270       C  0.81522050  0.43877887  0.50099091    -0.07700
C1271       C  0.79937165  0.46238175  0.52208882    -0.02300
C1272       C  0.81462919  0.98827286  0.54340233     0.04600
N1273       N  0.80008752  0.01471033  0.56425511     0.67100
H1274       H  0.85605826  0.00789211  0.56138742     0.16000
H1275       H  0.80422552  0.41892824  0.48412417     0.15700
N1276       N  0.86006534  0.41478004  0.47949958     0.74800
O1277       O  0.79607535  0.00570469  0.59388457    -0.38700
O1278       O  0.79879567  0.04990481  0.55600824    -0.38600
O1279       O  0.86004367  0.37862922  0.48436877    -0.39300
O1280       O  0.86628062  0.42761037  0.45144856    -0.39400
C1281       C  0.04833071  0.61096105  0.08450067     0.03700
C1282       C  0.05990515  0.61171902  0.05259429    -0.12400
C1283       C  0.05196130  0.58351341  0.02911992     0.01200
C1284       C  0.03167221  0.55465909  0.03714988    -0.10900
C1285       C  0.01912619  0.55354967  0.06824895     0.03700
C1286       C  0.02744677  0.58191187  0.09203381    -0.10400
H1287       H  0.07660996  0.63277705  0.04663399     0.09300
H1288       H  0.02634498  0.53198740  0.01936198     0.06800
H1289       H  0.01897892  0.58004267  0.11662703     0.06700
Zn1290     Zn  0.93836177  0.89827226  0.04732844     1.49700
Zn1291     Zn  0.93727069  0.90998492  0.12118602     1.49400
Zn1292     Zn  0.99517410  0.93195701  0.08209649     1.49100
Zn1293     Zn  0.93931426  0.98452152  0.07649405     1.49500
O1294       O  0.95330660  0.93180972  0.08213578    -1.83500
O1295       O  0.92620594  0.84459087  0.06337117    -0.74200
O1296       O  0.96922459  0.89017370  0.14955165    -0.74000
O1297       O  0.00778468  0.91656593  0.03512827    -0.73500
O1298       O  0.91051857  0.86446505  0.11160602    -0.74200
O1299       O  0.96691083  0.89662931  0.01047044    -0.73800
O1300       O  0.00943589  0.89532032  0.12040992    -0.74400
O1301       O  0.97287521  0.02234421  0.06722940    -0.73700
O1302       O  0.91227763  0.94815999  0.14335345    -0.74500
O1303       O  0.01036419  0.98871636  0.08613158    -0.73900
O1304       O  0.91902693  0.00363436  0.11668039    -0.74400
O1305       O  0.90493662  0.98337849  0.04450469    -0.74300
O1306       O  0.90084081  0.92058389  0.03193973    -0.74100
C1307       C  0.91041923  0.83968195  0.08841176     0.77700
C1308       C  0.99583500  0.88319509  0.14582418     0.78200
C1309       C  0.99371227  0.90523953  0.00934423     0.77200
C1310       C  0.99955807  0.02026439  0.07526823     0.77600
C1311       C  0.90665726  0.98373247  0.13876486     0.78700
C1312       C  0.89034978  0.95442791  0.03294226     0.77700
C1313       C  0.78903458  0.70811434  0.02465952     0.80800
N1314       N  0.80433109  0.71989833  0.05198121    -0.77500
C1315       C  0.83344564  0.72409057  0.05072191     0.83300
N1316       N  0.84734223  0.71807900  0.52143861    -0.77400
C1317       C  0.83297280  0.70587668  0.49403968     0.83400
N1318       N  0.80393977  0.70091432  0.49482059    -0.79100
C1319       C  0.00981011  0.85931184  0.17199464     0.03700
C1320       C  0.03058936  0.83108841  0.16492948    -0.12400
C1321       C  0.03959751  0.80491703  0.18959574     0.01200
C1322       C  0.02834134  0.80768264  0.22129655    -0.10900
C1323       C  0.00715741  0.83463247  0.22849669     0.03700
C1324       C  0.99828172  0.86045580  0.20391270    -0.10400
H1325       H  0.03856397  0.82820727  0.14019087     0.09300
H1326       H  0.03460922  0.78673373  0.23979576     0.06800
H1327       H  0.98144746  0.88071807  0.20941445     0.06700
Zn1328     Zn  0.11808966  0.73742711  0.18752225     1.49700
Zn1329     Zn  0.06185755  0.68399977  0.17476371     1.49400
Zn1330     Zn  0.12040791  0.66695785  0.13656916     1.49100
Zn1331     Zn  0.11596177  0.64859144  0.20944860     1.49500
O1332       O  0.10357179  0.68506323  0.17659831    -1.83500
O1333       O  0.08483582  0.77430120  0.19290510    -0.74200
O1334       O  0.04838132  0.64745711  0.13582029    -0.74000
O1335       O  0.14515770  0.70837477  0.11653162    -0.73500
O1336       O  0.04767066  0.74038448  0.17103047    -0.74200
O1337       O  0.14404285  0.75756360  0.15214181    -0.73800
O1338       O  0.08881133  0.64499179  0.10697532    -0.74400
O1339       O  0.13113826  0.59834580  0.19052366    -0.73700
O1340       O  0.04761465  0.66660367  0.22040427    -0.74500
O1341       O  0.14851186  0.62385840  0.14489575    -0.73900
O1342       O  0.08615039  0.64106404  0.24448268    -0.74400
O1343       O  0.15064167  0.67302889  0.23034097    -0.74300
O1344       O  0.14650882  0.73688450  0.22583098    -0.74100
C1345       C  0.05863189  0.77192872  0.18300819     0.77700
C1346       C  0.06219179  0.63623630  0.11046889     0.78200
C1347       C  0.15376988  0.74174649  0.12645077     0.77200
C1348       C  0.14831741  0.59726620  0.16642556     0.77600
C1349       C  0.06005377  0.65164026  0.24555244     0.78700
C1350       C  0.16031365  0.70732836  0.23555105     0.77700
C1351       C  0.26889797  0.97173902  0.23889638     0.80800
N1352       N  0.25206238  0.96044393  0.26446902    -0.77500
C1353       C  0.22290821  0.46381026  0.26208052     0.83300
N1354       N  0.21122099  0.47864624  0.23444188    -0.77400
C1355       C  0.22733017  0.49066733  0.20910489     0.83400
N1356       N  0.25641151  0.48783867  0.21147958    -0.79100
C1357       C  0.04539696  0.63046101  0.33585600     0.03700
C1358       C  0.02627643  0.66076291  0.34277582    -0.12400
C1359       C  0.01566160  0.68454568  0.31734333     0.01200
C1360       C  0.02483581  0.67865056  0.28502631    -0.10900
C1361       C  0.04516492  0.65028673  0.27776452     0.03700
C1362       C  0.05472866  0.62568413  0.30322664    -0.10400
H1363       H  0.01968404  0.66586477  0.36781799     0.09300
H1364       H  0.01765431  0.69825750  0.26591819     0.06800
H1365       H  0.07078060  0.60420318  0.29800898     0.06700
Zn1366     Zn  0.93507499  0.83215859  0.29538015     1.49700
Zn1367     Zn  0.99178432  0.80491499  0.33199446     1.49400
Zn1368     Zn  0.93372481  0.82583733  0.37016277     1.49100
Zn1369     Zn  0.93670722  0.74922184  0.32790764     1.49500
O1370       O  0.95008396  0.80269351  0.33179135    -1.83500
O1371       O  0.96418896  0.83603043  0.25926111    -0.74200
O1372       O  0.00612650  0.84234982  0.36960399    -0.74000
O1373       O  0.90654493  0.86920327  0.35850797    -0.73500
O1374       O  0.00484979  0.82212215  0.28620962    -0.74200
O1375       O  0.92380810  0.88529030  0.30985779    -0.73800
O1376       O  0.96561314  0.84975864  0.39749651    -0.74400
O1377       O  0.92055760  0.72979274  0.37067037    -0.73700
O1378       O  0.00721748  0.74918877  0.33567218    -0.74500
O1379       O  0.91136258  0.78587817  0.39540764    -0.73900
O1380       O  0.96980317  0.71414516  0.31581556    -0.74400
O1381       O  0.90085247  0.74696823  0.29837728    -0.74300
O1382       O  0.89723838  0.80750422  0.28056121    -0.74100
C1383       C  0.99137499  0.83151685  0.25981137     0.77700
C1384       C  0.99250143  0.85618596  0.39409047     0.78200
C1385       C  0.90772949  0.89219038  0.33414945     0.77200
C1386       C  0.90864620  0.74911505  0.39321628     0.77600
C1387       C  0.99643417  0.71742195  0.32395890     0.78700
C1388       C  0.88631057  0.77372642  0.28461054     0.77700
C1389       C  0.78433769  0.00748392  0.25922958     0.80800
N1390       N  0.79667230  0.02287416  0.23190842    -0.77500
C1391       C  0.82565707  0.02895458  0.23075910     0.83300
N1392       N  0.84213467  0.01868262  0.25683530    -0.77400
C1393       C  0.83076152  0.00230409  0.28395282     0.83400
N1394       N  0.80166367  0.99644423  0.28490719    -0.79100
C1395       C  0.00726610  0.88069778  0.41967151     0.03700
C1396       C  0.02858331  0.90868741  0.41178276    -0.12400
C1397       C  0.03986772  0.93416923  0.43624899     0.01200
C1398       C  0.02996179  0.93080913  0.46877889    -0.10900
C1399       C  0.00805100  0.90406821  0.47677908     0.04500
C1400       C  0.99704196  0.87912502  0.45208003    -0.10400
H1401       H  0.03570287  0.91139107  0.38666087     0.09300
H1402       H  0.03786386  0.95106636  0.48744416     0.06800
H1403       H  0.97983934  0.85880419  0.45799625     0.06700
Zn1404     Zn  0.14345885  0.56636094  0.41103362     1.49700
Zn1405     Zn  0.10524469  0.52196814  0.45903323     1.49400
Zn1406     Zn  0.08866732  0.60633446  0.43065368     1.49100
Zn1407     Zn  0.08552987  0.52885061  0.38403612     1.49500
O1408       O  0.10429607  0.55557436  0.42127713    -1.83500
O1409       O  0.17020555  0.55524620  0.44846214    -0.74200
O1410       O  0.08586899  0.54917564  0.49621325    -0.74000
O1411       O  0.12195238  0.64630586  0.43472723    -0.73500
O1412       O  0.14657859  0.00639509  0.47172241    -0.74200
O1413       O  0.15159599  0.62109373  0.39889959    -0.73800
O1414       O  0.06795894  0.60371207  0.47512052    -0.74400
O1415       O  0.06539667  0.57142945  0.35673466    -0.73700
O1416       O  0.07938331  0.97531004  0.45079728    -0.74500
O1417       O  0.06371030  0.62249688  0.39081958    -0.73900
O1418       O  0.05873816  0.98513853  0.40170410    -0.74400
O1419       O  0.11582135  0.50185623  0.35609909    -0.74300
O1420       O  0.15534312  0.53091540  0.37608890    -0.74100
C1421       C  0.16982446  0.02572089  0.46690771     0.77700
C1422       C  0.07051686  0.57932496  0.49865488     0.78200
C1423       C  0.14501571  0.64849568  0.41813256     0.77200
C1424       C  0.05837385  0.60660439  0.36276247     0.77600
C1425       C  0.06069131  0.96610059  0.42866463     0.78700
C1426       C  0.14314872  0.50631906  0.35689641     0.77700
C1427       C  0.27598760  0.75517469  0.50379328     0.80800
N1428       N  0.25953445  0.74189414  0.47773290    -0.77500
C1429       C  0.23042415  0.74614658  0.47769152     0.83300
N1430       N  0.21675744  0.76504239  0.00421203    -0.77400
C1431       C  0.23269388  0.77746269  0.03031447     0.83400
N1432       N  0.26167917  0.77313283  0.02992260    -0.79100
C1433       C  0.50874179  0.83146275  0.09031226     0.03700
C1434       C  0.49955058  0.83626817  0.05733553    -0.12400
C1435       C  0.51031984  0.81302042  0.03189171     0.01200
C1436       C  0.53172025  0.78613997  0.03959522    -0.10900
C1437       C  0.54083162  0.77986046  0.07233698     0.03700
C1438       C  0.52887268  0.80230448  0.09768388    -0.10400
H1439       H  0.48281989  0.85682096  0.05170727     0.09300
H1440       H  0.53968459  0.76768834  0.02025504     0.06800
H1441       H  0.53540495  0.79736754  0.12298555     0.06700
Zn1442     Zn  0.60435305  0.69233966  0.04853179     1.49700
Zn1443     Zn  0.58680273  0.60763129  0.07664707     1.49400
Zn1444     Zn  0.64176209  0.64766248  0.09633380     1.49100
Zn1445     Zn  0.58705748  0.68563907  0.12297820     1.49500
O1446       O  0.60288356  0.65878007  0.08594777    -1.83500
O1447       O  0.58457713  0.66347157  0.01083980    -0.74200
O1448       O  0.61938078  0.56800159  0.07591104    -0.74000
O1449       O  0.66563944  0.65372785  0.05738500    -0.73500
O1450       O  0.56635519  0.60821533  0.03134157    -0.74200
O1451       O  0.64666175  0.70798117  0.03854947    -0.73800
O1452       O  0.64849677  0.59510031  0.11306026    -0.74400
O1453       O  0.62017250  0.71141454  0.14965334    -0.73700
O1454       O  0.56150997  0.59289906  0.11535025    -0.74500
O1455       O  0.65827909  0.68435262  0.12806018    -0.73900
O1456       O  0.56661266  0.64339090  0.15004778    -0.74400
O1457       O  0.56061003  0.72922548  0.10627738    -0.74300
O1458       O  0.57876008  0.73859623  0.05649841    -0.74100
C1459       C  0.56910210  0.63256798  0.00785015     0.77700
C1460       C  0.64190593  0.56683780  0.09434580     0.78200
C1461       C  0.66809451  0.68554331  0.04209948     0.77200
C1462       C  0.64745427  0.70788145  0.14803594     0.77600
C1463       C  0.55784992  0.60861489  0.14352903     0.78700
C1464       C  0.56138802  0.74792961  0.07913150     0.77700
C1465       C  0.76582334  0.95371486  0.02012270     0.80800
N1466       N  0.74916212  0.46423320  0.04603316    -0.77500
C1467       C  0.71995722  0.45971999  0.04425067     0.83300
N1468       N  0.70944047  0.44910588  0.51741545    -0.77400
C1469       C  0.72518150  0.44037830  0.49087342     0.83400
N1470       N  0.75415908  0.94524885  0.49271662    -0.79100
C1471       C  0.54524487  0.58448584  0.17006137     0.03700
C1472       C  0.52519313  0.55422327  0.16250222    -0.12400
C1473       C  0.51601796  0.52839710  0.18708114     0.01200
C1474       C  0.52795499  0.53217194  0.21890764    -0.10900
C1475       C  0.54875409  0.56091164  0.22662454     0.03700
C1476       C  0.55664738  0.58784590  0.20242604    -0.10400
H1477       H  0.51684491  0.55074843  0.13761699     0.09300
H1478       H  0.52229145  0.51099432  0.23748984     0.06800
H1479       H  0.57358632  0.60902773  0.20793481     0.06700
Zn1480     Zn  0.45161851  0.94158715  0.21245475     1.49700
Zn1481     Zn  0.40976143  0.89813179  0.16423222     1.49400
Zn1482     Zn  0.46802221  0.93252737  0.13732838     1.49100
Zn1483     Zn  0.46527184  0.85540602  0.18391858     1.49500
O1484       O  0.44970026  0.90684333  0.17469181    -1.83500
O1485       O  0.41173167  0.95967325  0.22718418    -0.74200
O1486       O  0.39773714  0.93105623  0.12713370    -0.74000
O1487       O  0.49570287  0.97641772  0.15371995    -0.73500
O1488       O  0.38481525  0.91614670  0.19979032    -0.74200
O1489       O  0.47765321  0.98736054  0.20320329    -0.73800
O1490       O  0.43752526  0.95927966  0.10881048    -0.74400
O1491       O  0.48993024  0.83897055  0.14456412    -0.73700
O1492       O  0.39827358  0.84274394  0.15712178    -0.74500
O1493       O  0.48785641  0.88983273  0.11064744    -0.73900
O1494       O  0.43206349  0.81482246  0.18731206    -0.74400
O1495       O  0.48756276  0.85801684  0.22833941    -0.74300
O1496       O  0.47280202  0.91444591  0.24889200    -0.74100
C1497       C  0.38736162  0.94361941  0.22048827     0.77700
C1498       C  0.41018728  0.95515699  0.10834314     0.78200
C1499       C  0.49515520  0.99606723  0.18048459     0.77200
C1500       C  0.49518910  0.85483484  0.11679343     0.77600
C1501       C  0.40724275  0.81371176  0.17321931     0.78700
C1502       C  0.48717245  0.88339669  0.25144175     0.77700
C1503       C  0.28160242  0.69601365  0.25244805     0.80800
N1504       N  0.29685141  0.71004875  0.22639403    -0.77500
C1505       C  0.32597638  0.70638348  0.22578675     0.83300
N1506       N  0.33936617  0.68983299  0.25180718    -0.77400
C1507       C  0.32492237  0.67720569  0.27826333     0.83400
N1508       N  0.29588353  0.68064994  0.27866684    -0.79100
C1509       C  0.54881596  0.60413861  0.42065172     0.03700
C1510       C  0.56064096  0.60121131  0.45285897    -0.12400
C1511       C  0.55345468  0.62813783  0.47738189     0.01200
C1512       C  0.53325319  0.65660436  0.47020995    -0.10900
C1513       C  0.52103158  0.65999853  0.43878964     0.03700
C1514       C  0.52910844  0.63410687  0.41379377    -0.10400
H1515       H  0.57713481  0.58018942  0.45807117     0.09300
H1516       H  0.52804376  0.67770728  0.48897673     0.06800
H1517       H  0.52046188  0.63762642  0.38910993     0.06700
Zn1518     Zn  0.44157443  0.81358880  0.45956969     1.49700
Zn1519     Zn  0.49667997  0.78069129  0.42741260     1.49400
Zn1520     Zn  0.44147037  0.72525300  0.43633097     1.49100
Zn1521     Zn  0.43850200  0.79564703  0.38657208     1.49500
O1522       O  0.45512545  0.77790006  0.42709346    -1.83500
O1523       O  0.47038628  0.82069497  0.49660850    -0.74200
O1524       O  0.51192652  0.72512191  0.42291281    -0.74000
O1525       O  0.41220243  0.72522491  0.47303537    -0.73500
O1526       O  0.51006259  0.79812311  0.47411953    -0.74200
O1527       O  0.40634998  0.78882590  0.47792280    -0.73800
O1528       O  0.47532192  0.68918142  0.44200177    -0.74400
O1529       O  0.41474819  0.75426702  0.36451166    -0.73700
O1530       O  0.50962673  0.81747331  0.38937054    -0.74500
O1531       O  0.41694091  0.70449249  0.39911058    -0.73900
O1532       O  0.46938569  0.81743403  0.35862505    -0.74400
O1533       O  0.41099785  0.83893922  0.39362932    -0.74300
O1534       O  0.42816939  0.86449030  0.44018852    -0.74100
C1535       C  0.49678557  0.81166926  0.49891269     0.77700
C1536       C  0.50147295  0.69275264  0.43309694     0.78200
C1537       C  0.39757044  0.75407346  0.48253117     0.77200
C1538       C  0.40713547  0.72027056  0.37322604     0.77600
C1539       C  0.49569429  0.82732126  0.36324600     0.78700
C1540       C  0.41152135  0.86586778  0.41502089     0.77700
C1541       C  0.28840999  0.98723246  0.48261390     0.80800
N1542       N  0.30150335  0.97133780  0.45597031    -0.77500
C1543       C  0.33074602  0.96967382  0.45545801     0.83300
N1544       N  0.34526782  0.98385494  0.98183309    -0.77400
C1545       C  0.33299387  0.99868972  0.00872232     0.83400
N1546       N  0.30390605  0.00113577  0.00930170    -0.79100
C1547       C  0.50891778  0.85213517  0.33750574     0.03700
C1548       C  0.53016792  0.88078630  0.34527311    -0.12400
C1549       C  0.53878701  0.90790659  0.32127303     0.01200
C1550       C  0.52574582  0.90634392  0.28984742    -0.10900
C1551       C  0.50444949  0.87852688  0.28190921     0.03700
C1552       C  0.49656896  0.85108641  0.30547249    -0.10400
H1553       H  0.53920088  0.88277464  0.36995262     0.09300
H1554       H  0.53119928  0.92823461  0.27177518     0.06800
H1555       H  0.47936438  0.83047988  0.29944310     0.06700
Zn1556     Zn  0.64209120  0.53837212  0.34079370     1.49700
Zn1557     Zn  0.60144542  0.49629108  0.29513272     1.49400
Zn1558     Zn  0.58743879  0.50252806  0.37131630     1.49100
Zn1559     Zn  0.58798838  0.58107192  0.32555886     1.49500
O1560       O  0.60254933  0.52934566  0.33321347    -1.83500
O1561       O  0.66386438  0.53536665  0.29977593    -0.74200
O1562       O  0.57694627  0.94917132  0.30488756    -0.74000
O1563       O  0.62029983  0.47516916  0.39632625    -0.73500
O1564       O  0.64211823  0.98303239  0.27885407    -0.74200
O1565       O  0.65771810  0.49848282  0.36943021    -0.73800
O1566       O  0.55972007  0.95891135  0.35513118    -0.74400
O1567       O  0.56352410  0.59523334  0.36519683    -0.73700
O1568       O  0.57932852  0.52411740  0.26000974    -0.74500
O1569       O  0.56888537  0.54522877  0.39972511    -0.73900
O1570       O  0.56664711  0.58172879  0.28009752    -0.74400
O1571       O  0.62178590  0.62079242  0.32710574    -0.74300
O1572       O  0.65145339  0.58947442  0.36024148    -0.74100
C1573       C  0.66410504  0.00568243  0.28140193     0.77700
C1574       C  0.55997172  0.93981563  0.32803510     0.78200
C1575       C  0.64732138  0.47616101  0.39104559     0.77200
C1576       C  0.56045880  0.57983141  0.39359108     0.77600
C1577       C  0.56610026  0.55604881  0.25714378     0.78700
C1578       C  0.64465326  0.62002774  0.34505607     0.77700
C1579       C  0.76174310  0.75698109  0.27999735     0.80800
N1580       N  0.74636092  0.76894310  0.25332071    -0.77500
C1581       C  0.71714560  0.76698755  0.25267188     0.83300
N1582       N  0.70330450  0.75309482  0.27933613    -0.77400
C1583       C  0.71806638  0.74072291  0.30631333     0.83400
N1584       N  0.74748209  0.74183790  0.30622423    -0.79100
C1585       C  0.65414254  0.69111458  0.34257592    -0.11700
C1586       C  0.66483864  0.65373582  0.34610053     0.05300
C1587       C  0.69502537  0.64880660  0.34687815    -0.07000
C1588       C  0.71332522  0.67975328  0.33814242    -0.07700
C1589       C  0.70207135  0.71605831  0.32996754    -0.02300
C1590       C  0.67264198  0.72249224  0.33591410     0.04600
N1591       N  0.66110626  0.76057982  0.33506082     0.67100
H1592       H  0.63123795  0.69585072  0.34422628     0.16000
H1593       H  0.73594660  0.67418239  0.33468785     0.15700
N1594       N  0.70724102  0.61175632  0.35325998     0.74800
O1595       O  0.64126946  0.76768074  0.31460197    -0.38700
O1596       O  0.66347986  0.78136071  0.36061266    -0.38600
O1597       O  0.71083956  0.58812800  0.32997560    -0.39300
O1598       O  0.71193981  0.60129037  0.38252751    -0.39400
C1599       C  0.37545497  0.96190546  0.42522473    -0.11700
C1600       C  0.34700791  0.94872289  0.43022447     0.05300
C1601       C  0.33928846  0.91054839  0.42053538    -0.07000
C1602       C  0.36081606  0.88484437  0.41148733    -0.07700
C1603       C  0.38990977  0.89644836  0.41279506    -0.02300
C1604       C  0.39707003  0.93586186  0.41760256     0.04600
N1605       N  0.42629384  0.94938185  0.41728420     0.67100
H1606       H  0.38165246  0.99146657  0.43159799     0.16000
H1607       H  0.35504708  0.85463964  0.40725149     0.15700
N1608       N  0.30923037  0.89715724  0.92356218     0.74800
O1609       O  0.43609210  0.96397861  0.39127503    -0.38700
O1610       O  0.43949840  0.95559408  0.44420226    -0.38600
O1611       O  0.29457312  0.89040089  0.89772377    -0.39300
O1612       O  0.30169468  0.88150212  0.95009998    -0.39400
C1613       C  0.33492097  0.70176270  0.33366097    -0.11700
C1614       C  0.34175797  0.67489896  0.30910740     0.05300
C1615       C  0.36928415  0.65792833  0.30974985    -0.07000
C1616       C  0.39006129  0.67060894  0.33289144    -0.07700
C1617       C  0.38398861  0.70074726  0.35456099    -0.02300
C1618       C  0.35602847  0.71555160  0.35573707     0.04600
N1619       N  0.34984342  0.74785530  0.37652863     0.67100
H1620       H  0.31426404  0.71589586  0.33309585     0.16000
H1621       H  0.41160201  0.65921280  0.33208583     0.15700
N1622       N  0.37740610  0.63066455  0.28518081     0.74800
O1623       O  0.35083287  0.78179735  0.36500393    -0.38700
O1624       O  0.34782057  0.74315702  0.40713744    -0.38600
O1625       O  0.39254821  0.64228020  0.26159509    -0.39300
O1626       O  0.37689044  0.59498539  0.29203650    -0.39400
C1627       C  0.38155955  0.00811466  0.03331114    -0.11700
C1628       C  0.35172531  0.00391660  0.03831074     0.05300
C1629       C  0.34222630  0.99360557  0.06980279    -0.07000
C1630       C  0.36214780  0.98053607  0.09320895    -0.07700
C1631       C  0.39162013  0.97812576  0.08597767    -0.02300
C1632       C  0.40152823  0.99501768  0.05669695     0.04600
N1633       N  0.43129506  0.99539245  0.04853517     0.67100
H1634       H  0.38936104  0.01749393  0.00978492     0.16000
H1635       H  0.35418864  0.96996651  0.11628003     0.15700
N1636       N  0.31238210  0.99262388  0.07762219     0.74800
O1637       O  0.44102880  0.96774999  0.03187403    -0.38700
O1638       O  0.44557649  0.02682268  0.05071516    -0.38600
O1639       O  0.29870944  0.96064595  0.07689906    -0.39300
O1640       O  0.30195355  0.02105456  0.09267204    -0.39400
C1641       C  0.35720155  0.78594405  0.17189603    -0.11700
C1642       C  0.38683557  0.78028416  0.17797134     0.05300
C1643       C  0.39521881  0.74487264  0.19209345    -0.07000
C1644       C  0.37428624  0.71839857  0.20283157    -0.07700
C1645       C  0.34477794  0.72709550  0.20183606    -0.02300
C1646       C  0.33620158  0.75999046  0.18383103     0.04600
N1647       N  0.30658128  0.76910972  0.17900769     0.67100
H1648       H  0.35001582  0.81212791  0.16007768     0.16000
H1649       H  0.38151675  0.69242633  0.21475243     0.15700
N1650       N  0.42475802  0.73602400  0.19788575     0.74800
O1651       O  0.29541549  0.79389322  0.19755039    -0.38700
O1652       O  0.29471122  0.76151745  0.15154347    -0.38600
O1653       O  0.43528849  0.74055140  0.22647470    -0.39300
O1654       O  0.43706391  0.71376292  0.17807968    -0.39400
C1655       C  0.69776926  0.46101960  0.40619915    -0.11700
C1656       C  0.66818538  0.45391063  0.41126898     0.05300
C1657       C  0.66018650  0.92989212  0.43770360    -0.07000
C1658       C  0.68100933  0.91925264  0.46106216    -0.07700
C1659       C  0.70941403  0.43379968  0.45939649    -0.02300
C1660       C  0.71835752  0.45167531  0.43011502     0.04600
N1661       N  0.74731745  0.46513400  0.42586182     0.67100
H1662       H  0.70494239  0.47733707  0.38511676     0.16000
H1663       H  0.67420362  0.90332915  0.48248540     0.15700
N1664       N  0.63092999  0.91837571  0.44276370     0.74800
O1665       O  0.76421255  0.44466029  0.40950076    -0.38700
O1666       O  0.75343296  0.50058995  0.43055524    -0.38600
O1667       O  0.62335802  0.88354674  0.43733587    -0.39300
O1668       O  0.61538747  0.93928034  0.46046752    -0.39400
C1669       C  0.71408502  0.74118991  0.19660114    -0.11700
C1670       C  0.70179458  0.76470984  0.22056572     0.05300
C1671       C  0.67272606  0.77513426  0.21657108    -0.07000
C1672       C  0.65574715  0.75789609  0.19158336    -0.07700
C1673       C  0.66718771  0.73036696  0.17025703    -0.02300
C1674       C  0.69722299  0.72361834  0.17186187     0.04600
N1675       N  0.71072622  0.69615607  0.15092685     0.67100
H1676       H  0.73633259  0.73277651  0.19903538     0.16000
H1677       H  0.63324894  0.76517141  0.18968653     0.15700
N1678       N  0.65998821  0.80327129  0.23734009     0.74800
O1679       O  0.72613732  0.70830150  0.12775717    -0.38700
O1680       O  0.71352010  0.66170211  0.16072264    -0.38600
O1681       O  0.66398649  0.83871370  0.23081490    -0.39300
O1682       O  0.63800160  0.79348993  0.25325096    -0.39400
C1683       C  0.65181725  0.49867532  0.07922237    -0.11700
C1684       C  0.66211223  0.53431897  0.09152377     0.05300
C1685       C  0.69219742  0.53981692  0.09640204    -0.07000
C1686       C  0.71117302  0.51210475  0.08466144    -0.07700
C1687       C  0.70082461  0.47883325  0.06808025    -0.02300
C1688       C  0.67079097  0.47068789  0.06807606     0.04600
N1689       N  0.65892511  0.43499709  0.05541027     0.67100
H1690       H  0.62889586  0.49321000  0.07670458     0.16000
H1691       H  0.73397635  0.51880209  0.08558758     0.15700
N1692       N  0.70417220  0.57508546  0.10979592     0.74800
O1693       O  0.65570676  0.40684361  0.07482685    -0.38700
O1694       O  0.64631561  0.43787968  0.52973740    -0.38600
O1695       O  0.71403618  0.57522938  0.13888311    -0.39300
O1696       O  0.71152472  0.60203189  0.09058228    -0.39400
C1697       C  0.32046331  0.71860996  0.49010214    -0.11700
C1698       C  0.30785069  0.75178953  0.50360675     0.05300
C1699       C  0.32468981  0.78361332  0.01516537    -0.07000
C1700       C  0.35581041  0.78000187  0.51201124    -0.07700
C1701       C  0.36827945  0.74845057  0.49605441    -0.02300
C1702       C  0.35050452  0.71622919  0.48719506     0.04600
N1703       N  0.36252637  0.68143476  0.47450805     0.67100
H1704       H  0.30693147  0.69449141  0.48165228     0.16000
H1705       H  0.36774020  0.80618913  0.01857585     0.15700
N1706       N  0.31358895  0.81794499  0.02966914     0.74800
O1707       O  0.37516608  0.65847606  0.49378806    -0.38700
O1708       O  0.36356441  0.67588506  0.44388391    -0.38600
O1709       O  0.31503425  0.82198596  0.06049542    -0.39300
O1710       O  0.31003390  0.84751310  0.01199721    -0.39400
C1711       C  0.18153853  0.73918160  0.45292721    -0.11700
C1712       C  0.21057738  0.72815755  0.45248272     0.05300
C1713       C  0.21779392  0.69599265  0.43288596    -0.07000
C1714       C  0.19579483  0.67256415  0.41880576    -0.07700
C1715       C  0.16654349  0.68023354  0.42421043    -0.02300
C1716       C  0.15958423  0.71528361  0.43978944     0.04600
N1717       N  0.12826132  0.72683789  0.94660432     0.67100
H1718       H  0.17329172  0.76600878  0.96744753     0.16000
H1719       H  0.20179774  0.64649271  0.40596342     0.15700
N1720       N  0.24696717  0.68496812  0.42865125     0.74800
O1721       O  0.11698031  0.71883824  0.97381283    -0.38700
O1722       O  0.11989477  0.75197352  0.42591237    -0.38600
O1723       O  0.25659514  0.65663327  0.44472180    -0.39300
O1724       O  0.25995341  0.69607706  0.40327389    -0.39400
C1725       C  0.24573079  0.02838132  0.99877158    -0.11700
C1726       C  0.25685842  0.99311932  0.48275029     0.05300
C1727       C  0.23687570  0.96749537  0.46704151    -0.07000
C1728       C  0.20764406  0.97679622  0.46541205    -0.07700
C1729       C  0.19785927  0.01161777  0.47875626    -0.02300
C1730       C  0.21748461  0.03614251  0.49601921     0.04600
N1731       N  0.20748845  0.57293922  0.01217173     0.67100
H1732       H  0.26058785  0.04809633  0.01140148     0.16000
H1733       H  0.19288672  0.95798778  0.45165753     0.15700
N1734       N  0.24576997  0.93227368  0.45208060     0.74800
O1735       O  0.20186212  0.57229648  0.04240670    -0.38700
O1736       O  0.21255686  0.60513017  0.99855387    -0.38600
O1737       O  0.24354497  0.90101297  0.46796813    -0.39300
O1738       O  0.24785356  0.93085964  0.42122728    -0.39400
C1739       C  0.73428440  0.02485274  0.24092402    -0.11700
C1740       C  0.75239466  0.00097383  0.25996283     0.05300
C1741       C  0.73932943  0.97227768  0.27999689    -0.07000
C1742       C  0.70934242  0.97053829  0.28299060    -0.07700
C1743       C  0.69175938  0.99674136  0.26638392    -0.02300
C1744       C  0.70425152  0.52266000  0.24418735     0.04600
N1745       N  0.68656960  0.54873137  0.22594562     0.67100
H1746       H  0.74360500  0.54614315  0.22493092     0.16000
H1747       H  0.69996202  0.95067055  0.30060208     0.15700
N1748       N  0.75601205  0.94532801  0.29841358     0.74800
O1749       O  0.68307275  0.58273683  0.23659318    -0.38700
O1750       O  0.67000010  0.53548995  0.20352649    -0.38600
O1751       O  0.75945069  0.95062065  0.32894958    -0.39300
O1752       O  0.75987663  0.91196975  0.28654831    -0.39400
C1753       C  0.89957087  0.95980112  0.31740053    -0.11700
C1754       C  0.88891848  0.92617599  0.33222798     0.05300
C1755       C  0.85931893  0.92318117  0.33899909    -0.07000
C1756       C  0.84040148  0.95084222  0.32609521    -0.07700
C1757       C  0.85073760  0.98217052  0.30720527    -0.02300
C1758       C  0.88102300  0.98810441  0.30555661     0.04600
N1759       N  0.89356017  0.02115815  0.28979921     0.67100
H1760       H  0.92243933  0.96309032  0.31318280     0.16000
H1761       H  0.81749209  0.94588277  0.32864229     0.15700
N1762       N  0.84787693  0.89022696  0.35591987     0.74800
O1763       O  0.90082973  0.05028319  0.30713366    -0.38700
O1764       O  0.90496959  0.01674457  0.26212797    -0.38600
O1765       O  0.84896501  0.88945406  0.38692112    -0.39300
O1766       O  0.84119358  0.85969562  0.34011519    -0.39400
C1767       C  0.84152812  0.73360212  0.29107516    -0.11700
C1768       C  0.85494237  0.76666324  0.27743142     0.05300
C1769       C  0.83715535  0.79479770  0.26245986    -0.07000
C1770       C  0.80708560  0.79039194  0.26317945    -0.07700
C1771       C  0.79380149  0.75872921  0.27890511    -0.02300
C1772       C  0.81145111  0.72951261  0.29209075     0.04600
N1773       N  0.79942261  0.69505939  0.30613215     0.67100
H1774       H  0.85436238  0.71132294  0.30243024     0.16000
H1775       H  0.79401952  0.81273060  0.25224753     0.15700
N1776       N  0.84895182  0.82866486  0.24714165     0.74800
O1777       O  0.79626730  0.66515761  0.28832149    -0.38700
O1778       O  0.79987747  0.69136527  0.33698028    -0.38600
O1779       O  0.85008014  0.82978637  0.21618562    -0.39300
O1780       O  0.85064649  0.86004043  0.26323979    -0.39400
C1781       C  0.31793050  0.99621463  0.22557417    -0.11700
C1782       C  0.30064231  0.96811021  0.24102965     0.05300
C1783       C  0.31403339  0.93598348  0.25599269    -0.07000
C1784       C  0.34365781  0.93075147  0.25237121    -0.07700
C1785       C  0.36044047  0.95736114  0.23465783    -0.02300
C1786       C  0.34758460  0.99120499  0.22243362     0.04600
N1787       N  0.36366607  0.01879796  0.20373496     0.67100
H1788       H  0.30820867  0.02139141  0.21451764     0.16000
H1789       H  0.35317393  0.90429218  0.26129867     0.15700
N1790       N  0.29759736  0.40646648  0.27220318     0.74800
O1791       O  0.36414038  0.01531829  0.17286315    -0.38700
O1792       O  0.37079624  0.05094186  0.21673584    -0.38600
O1793       O  0.29083661  0.87568915  0.25661851    -0.39300
O1794       O  0.29649286  0.40679126  0.30317084    -0.39400
C1795       C  0.17396928  0.95455895  0.28332000    -0.11700
C1796       C  0.20351248  0.45919979  0.29034561     0.05300
C1797       C  0.21218661  0.46998081  0.32246478    -0.07000
C1798       C  0.19148512  0.48152634  0.34481333    -0.07700
C1799       C  0.16217822  0.48345921  0.33560639    -0.02300
C1800       C  0.15328303  0.96722338  0.30530916     0.04600
N1801       N  0.12384370  0.96727491  0.29465744     0.67100
H1802       H  0.16681200  0.94517069  0.25905571     0.16000
H1803       H  0.19879409  0.49195049  0.36871720     0.15700
N1804       N  0.24185874  0.47386541  0.33178118     0.74800
O1805       O  0.11490192  0.99535966  0.27774872    -0.38700
O1806       O  0.10965079  0.93570116  0.29424882    -0.38600
O1807       O  0.25356808  0.44679271  0.34757680    -0.39300
O1808       O  0.25379181  0.50706332  0.33172848    -0.39400
C1809       C  0.22565631  0.76070070  0.08818484    -0.11700
C1810       C  0.21733800  0.78357081  0.06134809     0.05300
C1811       C  0.18968117  0.80015141  0.06116917    -0.07000
C1812       C  0.16965704  0.78891667  0.08477340    -0.07700
C1813       C  0.17678131  0.76124068  0.10832666    -0.02300
C1814       C  0.20541209  0.74862706  0.11122511     0.04600
N1815       N  0.21350727  0.72019638  0.13502235     0.67100
H1816       H  0.24665157  0.74765716  0.08881073     0.16000
H1817       H  0.14790125  0.79942891  0.08303952     0.15700
N1818       N  0.18077967  0.82600002  0.03574284     0.74800
O1819       O  0.20914995  0.68471387  0.12850249    -0.38700
O1820       O  0.23125403  0.72952050  0.15762858    -0.38600
O1821       O  0.16273065  0.81409125  0.01432330    -0.39300
O1822       O  0.18389586  0.86206049  0.04045018    -0.39400
C1823       C  0.18347054  0.50020818  0.17620706    -0.11700
C1824       C  0.21205098  0.51218182  0.18287864     0.05300
C1825       C  0.22060061  0.55030795  0.17460387    -0.07000
C1826       C  0.19949935  0.57739485  0.16596933    -0.07700
C1827       C  0.17010925  0.56659848  0.16524087    -0.02300
C1828       C  0.16239301  0.52717044  0.16837316     0.04600
N1829       N  0.13299667  0.51448137  0.16658604     0.67100
H1830       H  0.17668255  0.47069160  0.18162062     0.16000
H1831       H  0.20584607  0.60755465  0.16274921     0.15700
N1832       N  0.24993013  0.56289138  0.17853261     0.74800
O1833       O  0.12351000  0.49859325  0.14048742    -0.38700
O1834       O  0.11936357  0.50976614  0.19287233    -0.38600
O1835       O  0.26844914  0.55143411  0.15854591    -0.39300
O1836       O  0.25800302  0.58088235  0.20422589    -0.39400
C1837       C  0.20152161  0.67902148  0.26536926    -0.11700
C1838       C  0.18993877  0.71132408  0.24928948     0.05300
C1839       C  0.20885817  0.74149924  0.23941291    -0.07000
C1840       C  0.23864780  0.73618818  0.24138376    -0.07700
C1841       C  0.25013910  0.70184639  0.25408133    -0.02300
C1842       C  0.23123943  0.67404130  0.26795549     0.04600
N1843       N  0.24145252  0.63895217  0.28224184     0.67100
H1844       H  0.18743182  0.65591878  0.27383720     0.16000
H1845       H  0.25282340  0.75874842  0.23227695     0.15700
N1846       N  0.19843535  0.77691552  0.22591925     0.74800
O1847       O  0.24398533  0.63694215  0.31311510    -0.38700
O1848       O  0.23925565  0.60788607  0.26579847    -0.38600
O1849       O  0.19890773  0.80705810  0.24365633    -0.39300
O1850       O  0.19580385  0.78032778  0.19516226    -0.39400
C1851       C  0.74141665  0.73383353  0.03944822    -0.11700
C1852       C  0.75746716  0.70393310  0.02571808     0.05300
C1853       C  0.74306784  0.67057100  0.01318188    -0.07000
C1854       C  0.71324389  0.66671681  0.01618890    -0.07700
C1855       C  0.69717801  0.69601425  0.03085786    -0.02300
C1856       C  0.71141167  0.73037415  0.04171505     0.04600
N1857       N  0.69604889  0.76107767  0.05676056     0.67100
H1858       H  0.75223804  0.75982132  0.04871097     0.16000
H1859       H  0.70272629  0.63983707  0.00844419     0.15700
N1860       N  0.75888364  0.63826942  0.49983041     0.74800
O1861       O  0.69509159  0.76307356  0.08769544    -0.38700
O1862       O  0.68996562  0.79060530  0.03996469    -0.38600
O1863       O  0.76498041  0.61036992  0.51853613    -0.39300
O1864       O  0.76017663  0.63367454  0.46911102    -0.39400
C1865       C  0.87804930  0.69413514  0.46510420    -0.11700
C1866       C  0.84917862  0.70553655  0.46318843     0.05300
C1867       C  0.83944023  0.72547441  0.43499107    -0.07000
C1868       C  0.85928549  0.73736466  0.41144159    -0.07700
C1869       C  0.88860589  0.72947599  0.41535866    -0.02300
C1870       C  0.89784123  0.70609010  0.44153379     0.04600
N1871       N  0.92751783  0.69743224  0.44640651     0.67100
H1872       H  0.88581622  0.67871464  0.48651074     0.16000
H1873       H  0.85201138  0.75476378  0.39091555     0.15700
N1874       N  0.81031233  0.73751678  0.43143205     0.74800
O1875       O  0.94290713  0.71932026  0.46470759    -0.38700
O1876       O  0.93594759  0.66364953  0.44011270    -0.38600
O1877       O  0.79327366  0.75215196  0.92048410    -0.39300
O1878       O  0.80377895  0.77128717  0.44040057    -0.39400
C1879       C  0.88655778  0.03758460  0.17229611    -0.11700
C1880       C  0.88326348  0.00089100  0.15761573     0.05300
C1881       C  0.85694924  0.98039348  0.16075690    -0.07000
C1882       C  0.83543233  0.99504911  0.18036737    -0.07700
C1883       C  0.84025814  0.02878826  0.19897876    -0.02300
C1884       C  0.86545487  0.05134370  0.19353369     0.04600
N1885       N  0.87021599  0.08773772  0.20982923     0.67100
H1886       H  0.90617684  0.05436370  0.16898975     0.16000
H1887       H  0.81649490  0.97705693  0.18444820     0.15700
N1888       N  0.85258022  0.94286154  0.14648883     0.74800
O1889       O  0.88642188  0.08939378  0.23498965    -0.38700
O1890       O  0.86520985  0.11854020  0.19424225    -0.38600
O1891       O  0.85617284  0.91338852  0.16430244    -0.39300
O1892       O  0.83855463  0.93956346  0.11978146    -0.39400
C1893       C  0.89963439  0.76841132  0.08514435    -0.11700
C1894       C  0.88995008  0.80639834  0.08932557     0.05300
C1895       C  0.86005679  0.81253129  0.09155090    -0.07000
C1896       C  0.84049175  0.78208704  0.08492609    -0.07700
C1897       C  0.85027455  0.74549636  0.07613464    -0.02300
C1898       C  0.87979624  0.73767449  0.08002037     0.04600
N1899       N  0.88968649  0.69885490  0.07655454     0.67100
H1900       H  0.92249996  0.76280548  0.08505504     0.16000
H1901       H  0.81784001  0.78855450  0.08235843     0.15700
N1902       N  0.84893432  0.85027297  0.09683877     0.74800
O1903       O  0.90139867  0.68886077  0.55580548    -0.38700
O1904       O  0.88153677  0.67314434  0.09654576    -0.38600
O1905       O  0.84372252  0.87142741  0.07227227    -0.39300
O1906       O  0.83599561  0.85652707  0.12326756    -0.39400
C1907       C  0.84312562  0.48386191  0.04482459    -0.11700
C1908       C  0.85922015  0.95888510  0.02493991     0.05300
C1909       C  0.84423696  0.93399566  0.00264684    -0.07000
C1910       C  0.81408526  0.93369366  0.00115229    -0.07700
C1911       C  0.79792328  0.95726156  0.02196104    -0.02300
C1912       C  0.81289736  0.48308298  0.04380629     0.04600
N1913       N  0.79810818  0.50863540  0.06521954     0.67100
H1914       H  0.85404515  0.50264832  0.06262334     0.16000
H1915       H  0.80329261  0.91391911  0.98405643     0.15700
N1916       N  0.85920910  0.90875110  0.98119351     0.74800
O1917       O  0.79340688  0.49813035  0.09435422    -0.38700
O1918       O  0.79712011  0.54423957  0.05823257    -0.38600
O1919       O  0.85971312  0.87290552  0.98738853    -0.39300
O1920       O  0.86494454  0.92022837  0.95259205    -0.39400
C1921       C  0.05011812  0.61226580  0.58439088     0.03700
C1922       C  0.06220483  0.61240282  0.55268380    -0.12400
C1923       C  0.05431529  0.58398516  0.52929959     0.01200
C1924       C  0.03376975  0.55549703  0.53729147    -0.10900
C1925       C  0.02083093  0.55496686  0.56814689     0.03700
C1926       C  0.02892001  0.58359134  0.59177061    -0.10400
H1927       H  0.07910380  0.63320560  0.54681142     0.09300
H1928       H  0.02842853  0.53271902  0.51960132     0.06800
H1929       H  0.02001226  0.58219934  0.61617461     0.06700
Zn1930     Zn  0.93834339  0.90104250  0.54694418     1.49700
Zn1931     Zn  0.93698198  0.91303792  0.62054066     1.49400
Zn1932     Zn  0.99529587  0.93362138  0.58163590     1.49100
Zn1933     Zn  0.94017280  0.98751867  0.57572154     1.49500
O1934       O  0.95349429  0.93448415  0.58160196    -1.83500
O1935       O  0.92566085  0.84766461  0.56293587    -0.74200
O1936       O  0.96869091  0.89254856  0.64895269    -0.74000
O1937       O  0.00780144  0.91741454  0.53494215    -0.73500
O1938       O  0.90982392  0.86787241  0.61097241    -0.74200
O1939       O  0.96677957  0.89824654  0.51021995    -0.73800
O1940       O  0.00896787  0.89671018  0.61982238    -0.74400
O1941       O  0.97413522  0.02481494  0.56735791    -0.73700
O1942       O  0.91194147  0.95164264  0.64220525    -0.74500
O1943       O  0.01124614  0.98998353  0.58557833    -0.73900
O1944       O  0.91898975  0.00681532  0.61517179    -0.74400
O1945       O  0.90666532  0.98735382  0.54278474    -0.74300
O1946       O  0.90130947  0.92433173  0.53151411    -0.74100
C1947       C  0.90971402  0.84301051  0.58784719     0.77700
C1948       C  0.99519342  0.88485285  0.64517778     0.78200
C1949       C  0.99368925  0.90605656  0.50921312     0.77200
C1950       C  0.00079390  0.02196438  0.57519429     0.77600
C1951       C  0.90626828  0.98711251  0.63711613     0.78700
C1952       C  0.89153731  0.95859822  0.53184635     0.77700
C1953       C  0.78968113  0.70805264  0.52315153     0.80800
N1954       N  0.80443290  0.72187933  0.55014574    -0.77500
C1955       C  0.83353350  0.72595781  0.54954376     0.83300
N1956       N  0.84662246  0.71843360  0.02183080    -0.77400
C1957       C  0.83162246  0.70850085  0.99431513     0.83400
N1958       N  0.80266611  0.70349622  0.99558810    -0.79100
C1959       C  0.00886834  0.86048579  0.67120586     0.03700
C1960       C  0.03004589  0.83274224  0.66423149    -0.12400
C1961       C  0.03901750  0.80643856  0.68882892     0.01200
C1962       C  0.02730322  0.80860533  0.72033584    -0.10900
C1963       C  0.00576686  0.83507139  0.72736175     0.03700
C1964       C  0.99690098  0.86097112  0.70289275    -0.10400
H1965       H  0.03840668  0.83037105  0.63962847     0.09300
H1966       H  0.03355988  0.78762309  0.73881512     0.06800
H1967       H  0.97984074  0.88089799  0.70836860     0.06700
Zn1968     Zn  0.11816383  0.73997020  0.68789025     1.49700
Zn1969     Zn  0.06212243  0.68579629  0.67483648     1.49400
Zn1970     Zn  0.12127970  0.66868354  0.63776489     1.49100
Zn1971     Zn  0.11594608  0.65134612  0.71064079     1.49500
O1972       O  0.10383509  0.68731002  0.67728635    -1.83500
O1973       O  0.08459589  0.77665416  0.69238622    -0.74200
O1974       O  0.04941639  0.64901536  0.63560010    -0.74000
O1975       O  0.14650881  0.70965251  0.61810738    -0.73500
O1976       O  0.04773862  0.74200681  0.67060308    -0.74200
O1977       O  0.14468781  0.75966819  0.65279877    -0.73800
O1978       O  0.09022633  0.64666313  0.60743322    -0.74400
O1979       O  0.13152994  0.60086865  0.69262623    -0.73700
O1980       O  0.04732383  0.66864136  0.72050004    -0.74500
O1981       O  0.14918295  0.62562922  0.64686340    -0.73900
O1982       O  0.08586820  0.64405965  0.74530213    -0.74400
O1983       O  0.15027362  0.67633717  0.73161261    -0.74300
O1984       O  0.14619015  0.74013963  0.72665465    -0.74100
C1985       C  0.05843036  0.77381565  0.68237315     0.77700
C1986       C  0.06358181  0.63779889  0.61048456     0.78200
C1987       C  0.15493336  0.74323089  0.62766227     0.77200
C1988       C  0.14885421  0.59939844  0.66868917     0.77600
C1989       C  0.05965711  0.65416431  0.74594694     0.78700
C1990       C  0.15993945  0.71066600  0.73666248     0.77700
C1991       C  0.26840852  0.97041541  0.73985506     0.80800
N1992       N  0.25151437  0.95924494  0.76544327    -0.77500
C1993       C  0.22251011  0.46351339  0.76344651     0.83300
N1994       N  0.21095289  0.47911358  0.73605690    -0.77400
C1995       C  0.22712419  0.49103272  0.71074689     0.83400
N1996       N  0.25614116  0.48729336  0.71285633    -0.79100
C1997       C  0.04427117  0.63208058  0.83594983     0.03700
C1998       C  0.02503710  0.66226570  0.84289208    -0.12400
C1999       C  0.01468881  0.68645374  0.81757156     0.01200
C2000       C  0.02420695  0.68103567  0.78531329    -0.10900
C2001       C  0.04450311  0.65263400  0.77800881     0.03700
C2002       C  0.05384186  0.62770817  0.80337450    -0.10400
H2003       H  0.01823860  0.66706869  0.86790012     0.09300
H2004       H  0.01726872  0.70093674  0.76630992     0.06800
H2005       H  0.06992305  0.60627323  0.79814045     0.06700
Zn2006     Zn  0.93338509  0.83147275  0.79365253     1.49700
Zn2007     Zn  0.99093822  0.80733127  0.83115847     1.49400
Zn2008     Zn  0.93304462  0.83027600  0.86862045     1.49100
Zn2009     Zn  0.93608463  0.75127569  0.83090054     1.49500
O2010       O  0.94927335  0.80500706  0.83131997    -1.83500
O2011       O  0.96247888  0.83402575  0.75748602    -0.74200
O2012       O  0.00553433  0.84438569  0.86892618    -0.74000
O2013       O  0.90670013  0.87391651  0.85574646    -0.73500
O2014       O  0.00356855  0.82459103  0.78528308    -0.74200
O2015       O  0.92180990  0.88546644  0.80526838    -0.73800
O2016       O  0.96489943  0.85329615  0.89625858    -0.74400
O2017       O  0.92228240  0.73427866  0.87541620    -0.73700
O2018       O  0.00659834  0.75169483  0.83447662    -0.74500
O2019       O  0.90966773  0.79214829  0.89408003    -0.73900
O2020       O  0.96857000  0.71551463  0.81800093    -0.74400
O2021       O  0.89862244  0.74758364  0.80412883    -0.74300
O2022       O  0.89528889  0.80550831  0.78082219    -0.74100
C2023       C  0.98985741  0.83170895  0.75849560     0.77700
C2024       C  0.99192332  0.85863422  0.89325650     0.78200
C2025       C  0.90687904  0.89463428  0.82995741     0.77200
C2026       C  0.90821635  0.75524963  0.89502288     0.77600
C2027       C  0.99551245  0.71936935  0.82436101     0.78700
C2028       C  0.88404751  0.77279074  0.78838019     0.77700
C2029       C  0.78257400  0.00934391  0.75527762     0.80800
N2030       N  0.79451627  0.02507489  0.72782447    -0.77500
C2031       C  0.82347269  0.03157133  0.72640525     0.83300
N2032       N  0.84025093  0.02125127  0.75219582    -0.77400
C2033       C  0.82929876  0.00438465  0.77928236     0.83400
N2034       N  0.80026198  0.99824729  0.78060886    -0.79100
C2035       C  0.00686904  0.88228255  0.91918661     0.03700
C2036       C  0.02803675  0.91048987  0.91157237    -0.12400
C2037       C  0.03937985  0.93546232  0.93630976     0.01200
C2038       C  0.02970529  0.93133961  0.96891668    -0.10900
C2039       C  0.00793419  0.90422360  0.97671546     0.04500
C2040       C  0.99685553  0.87982709  0.95164897    -0.10400
H2041       H  0.03495843  0.91380560  0.88642316     0.09300
H2042       H  0.03768318  0.95123704  0.98781473     0.06800
H2043       H  0.97972956  0.85927217  0.95729397     0.06700
Zn2044     Zn  0.14226287  0.56798593  0.91163956     1.49700
Zn2045     Zn  0.10426006  0.52326718  0.95932101     1.49400
Zn2046     Zn  0.08690740  0.60723332  0.93101414     1.49100
Zn2047     Zn  0.08461350  0.53032278  0.88421033     1.49500
O2048       O  0.10311013  0.55687602  0.92158827    -1.83500
O2049       O  0.16902847  0.55753783  0.94936016    -0.74200
O2050       O  0.08424705  0.54970482  0.99631178    -0.74000
O2051       O  0.12000107  0.64734305  0.93565172    -0.73500
O2052       O  0.14567325  0.00836548  0.97221721    -0.74200
O2053       O  0.14961522  0.62282470  0.89940630    -0.73800
O2054       O  0.06565716  0.60375357  0.97510171    -0.74400
O2055       O  0.06443734  0.57295392  0.85671428    -0.73700
O2056       O  0.07890783  0.97649365  0.95082062    -0.74500
O2057       O  0.06220246  0.62367950  0.89105094    -0.73900
O2058       O  0.05790631  0.98684401  0.90198109    -0.74400
O2059       O  0.11519882  0.50331602  0.85656387    -0.74300
O2060       O  0.15459954  0.53244046  0.87682174    -0.74100
C2061       C  0.16885956  0.02788328  0.96755752     0.77700
C2062       C  0.06832515  0.57930274  0.99857308     0.78200
C2063       C  0.14299558  0.64990925  0.91895334     0.77200
C2064       C  0.05716743  0.60802201  0.86284392     0.77600
C2065       C  0.06005650  0.96755516  0.92881472     0.78700
C2066       C  0.14253845  0.50776016  0.85757794     0.77700
C2067       C  0.27447528  0.75727429  0.00323163     0.80800
N2068       N  0.25777197  0.74384220  0.97742959    -0.77500
C2069       C  0.22867428  0.74824138  0.97770301     0.83300
N2070       N  0.21821588  0.76266262  0.50415832    -0.77400
C2071       C  0.23391156  0.77501663  0.53048729     0.83400
N2072       N  0.26292630  0.77083937  0.53040158    -0.79100
C2073       C  0.50912269  0.83139664  0.59045869     0.03700
C2074       C  0.50012116  0.83631604  0.55743684    -0.12400
C2075       C  0.51113014  0.81326759  0.53200859     0.01200
C2076       C  0.53259181  0.78649884  0.53978665    -0.10900
C2077       C  0.54149868  0.78011703  0.57258080     0.03700
C2078       C  0.52930360  0.80234861  0.59789539    -0.10400
H2079       H  0.48334230  0.85677736  0.55175026     0.09300
H2080       H  0.54073457  0.76817011  0.52046464     0.06800
H2081       H  0.53568350  0.79731830  0.62323230     0.06700
Zn2082     Zn  0.60521229  0.69271769  0.54931459     1.49700
Zn2083     Zn  0.58790928  0.60800453  0.57741925     1.49400
Zn2084     Zn  0.64268514  0.64896782  0.59859768     1.49100
Zn2085     Zn  0.58716168  0.68591528  0.62377328     1.49500
O2086       O  0.60382611  0.65936314  0.58698085    -1.83500
O2087       O  0.58530141  0.66395902  0.51170335    -0.74200
O2088       O  0.62075533  0.56881722  0.57745465    -0.74000
O2089       O  0.66760109  0.65603933  0.56064316    -0.73500
O2090       O  0.56779404  0.60810679  0.53171222    -0.74200
O2091       O  0.64739359  0.70781893  0.53844983    -0.73800
O2092       O  0.64945791  0.59621320  0.61492937    -0.74400
O2093       O  0.61948429  0.71211435  0.65151680    -0.73700
O2094       O  0.56216460  0.59283043  0.61571527    -0.74500
O2095       O  0.65826640  0.68546000  0.63123913    -0.73900
O2096       O  0.56643642  0.64340941  0.65039499    -0.74400
O2097       O  0.56085461  0.72927472  0.60651545    -0.74300
O2098       O  0.57973643  0.73915035  0.55714502    -0.74100
C2099       C  0.57024233  0.63275741  0.50838954     0.77700
C2100       C  0.64308712  0.56784446  0.59622885     0.78200
C2101       C  0.66922336  0.68635392  0.54319966     0.77200
C2102       C  0.64682959  0.70883985  0.65087478     0.77600
C2103       C  0.55797995  0.60852176  0.64379148     0.78700
C2104       C  0.56201937  0.74821502  0.57950934     0.77700
C2105       C  0.76732702  0.95836429  0.52095465     0.80800
N2106       N  0.75089831  0.46801873  0.54708783    -0.77500
C2107       C  0.72170825  0.46282551  0.54554588     0.83300
N2108       N  0.70776851  0.44551853  0.01626443    -0.77400
C2109       C  0.72360242  0.43571326  0.99004633     0.83400
N2110       N  0.75272642  0.94009660  0.99193478    -0.79100
C2111       C  0.54514487  0.58429894  0.67017484     0.03700
C2112       C  0.52512759  0.55399997  0.66246723    -0.12400
C2113       C  0.51565096  0.52831684  0.68705399     0.01200
C2114       C  0.52729686  0.53224315  0.71898888    -0.10900
C2115       C  0.54811922  0.56088625  0.72683825     0.03700
C2116       C  0.55627698  0.58771075  0.70266192    -0.10400
H2117       H  0.51702252  0.55041924  0.63749287     0.09300
H2118       H  0.52143915  0.51116475  0.73757514     0.06800
H2119       H  0.57321972  0.60883858  0.70830726     0.06700
Zn2120     Zn  0.45119654  0.94108667  0.71228863     1.49700
Zn2121     Zn  0.40966377  0.89725917  0.66428221     1.49400
Zn2122     Zn  0.46803015  0.93197326  0.63753113     1.49100
Zn2123     Zn  0.46503716  0.85472393  0.68376311     1.49500
O2124       O  0.44957254  0.90617189  0.67468362    -1.83500
O2125       O  0.41104566  0.95859869  0.72691708    -0.74200
O2126       O  0.39758830  0.93116323  0.62782459    -0.74000
O2127       O  0.49559079  0.97601815  0.65382589    -0.73500
O2128       O  0.38472842  0.91371436  0.70039918    -0.74200
O2129       O  0.47713818  0.98717911  0.70305623    -0.73800
O2130       O  0.43756402  0.95863346  0.60919386    -0.74400
O2131       O  0.48996787  0.83853375  0.64457450    -0.73700
O2132       O  0.39838583  0.84193687  0.65602420    -0.74500
O2133       O  0.48798305  0.88953357  0.61080463    -0.73900
O2134       O  0.43181223  0.81413057  0.68678698    -0.74400
O2135       O  0.48698919  0.85723599  0.72829233    -0.74300
O2136       O  0.47233161  0.91383116  0.74869188    -0.74100
C2137       C  0.38690960  0.94159067  0.72074480     0.77700
C2138       C  0.41020337  0.95502198  0.60894441     0.78200
C2139       C  0.49478360  0.99587594  0.68045171     0.77200
C2140       C  0.49534974  0.85454799  0.61689770     0.77600
C2141       C  0.40716692  0.81292668  0.67229089     0.78700
C2142       C  0.48656400  0.88266600  0.75134378     0.77700
C2143       C  0.28105984  0.69743820  0.75177493     0.80800
N2144       N  0.29634507  0.71094136  0.72552490    -0.77500
C2145       C  0.32541581  0.70641875  0.72471370     0.83300
N2146       N  0.33868337  0.68972429  0.75076900    -0.77400
C2147       C  0.32422051  0.67772533  0.77740792     0.83400
N2148       N  0.29526705  0.68187443  0.77793510    -0.79100
C2149       C  0.54710463  0.60322477  0.92057235     0.03700
C2150       C  0.55912269  0.60064014  0.95268196    -0.12400
C2151       C  0.55217845  0.62788920  0.97700971     0.01200
C2152       C  0.53199064  0.65634975  0.96984929    -0.10900
C2153       C  0.51949215  0.65941220  0.93854959     0.03700
C2154       C  0.52736431  0.63319363  0.91365569    -0.10400
H2155       H  0.57561775  0.57963154  0.95794067     0.09300
H2156       H  0.52698152  0.67766538  0.98852323     0.06800
H2157       H  0.51858174  0.63649340  0.88901100     0.06700
Zn2158     Zn  0.44057977  0.81378770  0.95963002     1.49700
Zn2159     Zn  0.49543257  0.78027461  0.92736073     1.49400
Zn2160     Zn  0.44009023  0.72526761  0.93624875     1.49100
Zn2161     Zn  0.43710590  0.79599426  0.88678073     1.49500
O2162       O  0.45387799  0.77791638  0.92712402    -1.83500
O2163       O  0.46949441  0.82071325  0.99662523    -0.74200
O2164       O  0.51048043  0.72458792  0.92270766    -0.74000
O2165       O  0.41050207  0.72551494  0.97266503    -0.73500
O2166       O  0.50897758  0.79767265  0.97403548    -0.74200
O2167       O  0.40532439  0.78920598  0.97792311    -0.73800
O2168       O  0.47383753  0.68887547  0.94195295    -0.74400
O2169       O  0.41345782  0.75467334  0.86454945    -0.73700
O2170       O  0.50843213  0.81687278  0.88930724    -0.74500
O2171       O  0.41577367  0.70461779  0.89884575    -0.73900
O2172       O  0.46801863  0.81773485  0.85886904    -0.74400
O2173       O  0.40951909  0.83925215  0.89406800    -0.74300
O2174       O  0.42712487  0.86481821  0.94040000    -0.74100
C2175       C  0.49584830  0.81143192  0.99885478     0.77700
C2176       C  0.49996549  0.69225653  0.93289370     0.78200
C2177       C  0.39615649  0.75458576  0.98228368     0.77200
C2178       C  0.40597628  0.72054476  0.87302939     0.77600
C2179       C  0.49444889  0.82707153  0.86332615     0.78700
C2180       C  0.41022428  0.86620466  0.91544646     0.77700
C2181       C  0.28747066  0.98878453  0.98299113     0.80800
N2182       N  0.30042635  0.97267165  0.95631880    -0.77500
C2183       C  0.32966683  0.97073156  0.95571546     0.83300
N2184       N  0.34624442  0.98290364  0.48162860    -0.77400
C2185       C  0.33380998  0.99760383  0.50848676     0.83400
N2186       N  0.30471102  0.99972215  0.50897021    -0.79100
C2187       C  0.50782163  0.85160836  0.83754953     0.03700
C2188       C  0.52917036  0.88009808  0.84530876    -0.12400
C2189       C  0.53798768  0.90700169  0.82125278     0.01200
C2190       C  0.52509886  0.90536749  0.78977122    -0.10900
C2191       C  0.50369118  0.87772724  0.78186293     0.03700
C2192       C  0.49556054  0.85050075  0.80548730    -0.10400
H2193       H  0.53810094  0.88216990  0.87003197     0.09300
H2194       H  0.53071310  0.92712559  0.77164735     0.06800
H2195       H  0.47825699  0.83003665  0.79947779     0.06700
Zn2196     Zn  0.64107956  0.53683708  0.84146224     1.49700
Zn2197     Zn  0.60042407  0.49572937  0.79530105     1.49400
Zn2198     Zn  0.58633718  0.50157302  0.87163044     1.49100
Zn2199     Zn  0.58682029  0.57999447  0.82614424     1.49500
O2200       O  0.60151370  0.52830702  0.83361109    -1.83500
O2201       O  0.66286496  0.53521400  0.80031407    -0.74200
O2202       O  0.57618691  0.94821963  0.80500724    -0.74000
O2203       O  0.61910065  0.47367859  0.89650826    -0.73500
O2204       O  0.64091839  0.98341483  0.77826207    -0.74200
O2205       O  0.65672243  0.49594103  0.86936675    -0.73800
O2206       O  0.55864981  0.95804347  0.85513382    -0.74400
O2207       O  0.56166526  0.59389465  0.86515262    -0.73700
O2208       O  0.57809541  0.52362104  0.76049303    -0.74500
O2209       O  0.56759632  0.54433890  0.89998750    -0.73900
O2210       O  0.56609900  0.58158254  0.78033724    -0.74400
O2211       O  0.62043272  0.61958429  0.82926888    -0.74300
O2212       O  0.65006290  0.58746297  0.86197015    -0.74100
C2213       C  0.66281985  0.00619652  0.78098883     0.77700
C2214       C  0.55910487  0.93890290  0.82807225     0.78200
C2215       C  0.64609122  0.47379172  0.89098379     0.77200
C2216       C  0.55879356  0.57873168  0.89364246     0.77600
C2217       C  0.56528312  0.55582429  0.75746198     0.78700
C2218       C  0.64304676  0.61849466  0.84761528     0.77700
C2219       C  0.75888076  0.75780680  0.78611087     0.80800
N2220       N  0.74362635  0.76925708  0.75912441    -0.77500
C2221       C  0.71438981  0.76707174  0.75811588     0.83300
N2222       N  0.70037752  0.75325194  0.78469689    -0.77400
C2223       C  0.71498647  0.74133440  0.81194863     0.83400
N2224       N  0.74439119  0.74290068  0.81225063    -0.79100
C2225       C  0.65142595  0.68974623  0.84687925    -0.11700
C2226       C  0.66267877  0.65264203  0.85007685     0.05300
C2227       C  0.69291993  0.64855681  0.85148020    -0.07000
C2228       C  0.71084746  0.68017924  0.84350989    -0.07700
C2229       C  0.69910271  0.71621647  0.83534107    -0.02300
C2230       C  0.66948718  0.72172266  0.84079721     0.04600
N2231       N  0.65725905  0.75938870  0.83970200     0.67100
H2232       H  0.62840745  0.69376670  0.84806062     0.16000
H2233       H  0.73361379  0.67531126  0.84046064     0.15700
N2234       N  0.70561495  0.61172488  0.85752484     0.74800
O2235       O  0.63765159  0.76583439  0.81878566    -0.38700
O2236       O  0.65870829  0.78010870  0.86534596    -0.38600
O2237       O  0.70994111  0.58876442  0.83394891    -0.39300
O2238       O  0.70979789  0.60058766  0.88670599    -0.39400
C2239       C  0.37442146  0.96255240  0.92562787    -0.11700
C2240       C  0.34587374  0.94965810  0.93045703     0.05300
C2241       C  0.33802939  0.91156051  0.92068417    -0.07000
C2242       C  0.35950072  0.88557976  0.91194031    -0.07700
C2243       C  0.38865810  0.89692434  0.91339528    -0.02300
C2244       C  0.39595268  0.93631062  0.91815292     0.04600
N2245       N  0.42521411  0.94966317  0.91775347     0.67100
H2246       H  0.38073711  0.99208085  0.93198092     0.16000
H2247       H  0.35359100  0.85543980  0.90759265     0.15700
N2248       N  0.31070882  0.89562945  0.42422769     0.74800
O2249       O  0.43495029  0.96438253  0.89176179    -0.38700
O2250       O  0.43852513  0.95567043  0.94463539    -0.38600
O2251       O  0.29581243  0.88767689  0.39879762    -0.39300
O2252       O  0.30374928  0.88065111  0.45125431    -0.39400
C2253       C  0.33400463  0.70182269  0.83304557    -0.11700
C2254       C  0.34107602  0.67537334  0.80825519     0.05300
C2255       C  0.36868281  0.65863025  0.80889289    -0.07000
C2256       C  0.38931587  0.67122832  0.83222459    -0.07700
C2257       C  0.38299626  0.70099653  0.85414916    -0.02300
C2258       C  0.35495248  0.71549111  0.85535894     0.04600
N2259       N  0.34851571  0.74741448  0.87645868     0.67100
H2260       H  0.31326839  0.71574387  0.83256449     0.16000
H2261       H  0.41091965  0.66004364  0.83142526     0.15700
N2262       N  0.37699310  0.63157231  0.78425482     0.74800
O2263       O  0.34927521  0.78152197  0.86527212    -0.38700
O2264       O  0.34652248  0.74226806  0.90701649    -0.38600
O2265       O  0.39255755  0.64331648  0.76107787    -0.39300
O2266       O  0.37627011  0.59583110  0.79086501    -0.39400
C2267       C  0.38225039  0.00721971  0.53337444    -0.11700
C2268       C  0.35238597  0.00316940  0.53815813     0.05300
C2269       C  0.34265816  0.99361780  0.56973910    -0.07000
C2270       C  0.36238551  0.98083197  0.59347502    -0.07700
C2271       C  0.39187102  0.97810885  0.58647406    -0.02300
C2272       C  0.40202666  0.99460323  0.55714538     0.04600
N2273       N  0.43190227  0.99526787  0.54946875     0.67100
H2274       H  0.39024206  0.01621903  0.50981977     0.16000
H2275       H  0.35428319  0.97077183  0.61665716     0.15700
N2276       N  0.31278943  0.99338853  0.57743135     0.74800
O2277       O  0.44211853  0.96746722  0.53340687    -0.38700
O2278       O  0.44594605  0.02689186  0.55161831    -0.38600
O2279       O  0.29892127  0.96157184  0.57781465    -0.39300
O2280       O  0.30250886  0.02267857  0.59140336    -0.39400
C2281       C  0.35720807  0.78465790  0.66982382    -0.11700
C2282       C  0.38676302  0.77941992  0.67679688     0.05300
C2283       C  0.39502658  0.74432257  0.69155436    -0.07000
C2284       C  0.37400611  0.71798831  0.70228814    -0.07700
C2285       C  0.34447299  0.72649880  0.70057912    -0.02300
C2286       C  0.33609179  0.75870855  0.68159313     0.04600
N2287       N  0.30652202  0.76664810  0.67491609     0.67100
H2288       H  0.35014920  0.81040042  0.65724742     0.16000
H2289       H  0.38114982  0.69235809  0.71468705     0.15700
N2290       N  0.42451354  0.73563400  0.69793451     0.74800
O2291       O  0.29420613  0.79199798  0.69184241    -0.38700
O2292       O  0.29588104  0.75724363  0.64720417    -0.38600
O2293       O  0.43466572  0.74049499  0.72665830    -0.39300
O2294       O  0.43711734  0.71320288  0.67852399    -0.39400
C2295       C  0.69632201  0.45604251  0.90535854    -0.11700
C2296       C  0.66663337  0.45055390  0.91090335     0.05300
C2297       C  0.65828277  0.92675878  0.93746273    -0.07000
C2298       C  0.67906585  0.91527546  0.96057758    -0.07700
C2299       C  0.70778325  0.42862447  0.95858389    -0.02300
C2300       C  0.71690979  0.44551701  0.92896915     0.04600
N2301       N  0.74633095  0.45618883  0.92380470     0.67100
H2302       H  0.70368555  0.47175755  0.88403968     0.16000
H2303       H  0.67206146  0.89993234  0.98221844     0.15700
N2304       N  0.62883907  0.91654726  0.94294487     0.74800
O2305       O  0.76176412  0.43377997  0.90733616    -0.38700
O2306       O  0.75426464  0.49116751  0.92761439    -0.38600
O2307       O  0.62040983  0.88198650  0.93785454    -0.39300
O2308       O  0.61393553  0.93833755  0.96061570    -0.39400
C2309       C  0.71227738  0.74298197  0.70130635    -0.11700
C2310       C  0.69923129  0.76495577  0.72578914     0.05300
C2311       C  0.66993299  0.77432364  0.72163183    -0.07000
C2312       C  0.65359991  0.75740225  0.69592082    -0.07700
C2313       C  0.66587779  0.73133810  0.67392949    -0.02300
C2314       C  0.69606951  0.72588824  0.67574843     0.04600
N2315       N  0.71050996  0.70046214  0.65384911     0.67100
H2316       H  0.73472155  0.73551417  0.70371460     0.16000
H2317       H  0.63094790  0.76379436  0.69391372     0.15700
N2318       N  0.65632316  0.80124308  0.74281396     0.74800
O2319       O  0.72565091  0.71481711  0.63133404    -0.38700
O2320       O  0.71439664  0.66572258  0.66230182    -0.38600
O2321       O  0.66040847  0.83702593  0.73780762    -0.39300
O2322       O  0.63374780  0.79049500  0.75720080    -0.39400
C2323       C  0.65330705  0.49988367  0.58095245    -0.11700
C2324       C  0.66336874  0.53536617  0.59380088     0.05300
C2325       C  0.69338152  0.54083612  0.59935767    -0.07000
C2326       C  0.71257713  0.51355553  0.58734984    -0.07700
C2327       C  0.70247993  0.48074654  0.56993336    -0.02300
C2328       C  0.67247745  0.47228690  0.56960932     0.04600
N2329       N  0.66082645  0.43683904  0.55620133     0.67100
H2330       H  0.63042544  0.49434296  0.57801597     0.16000
H2331       H  0.73535697  0.52035762  0.58868208     0.15700
N2332       N  0.70509732  0.57573769  0.61370755     0.74800
O2333       O  0.65742413  0.40825288  0.57512224    -0.38700
O2334       O  0.64416517  0.43547317  0.02910716    -0.38600
O2335       O  0.71450284  0.57506857  0.64297421    -0.39300
O2336       O  0.71269604  0.60326988  0.59521677    -0.39400
C2337       C  0.31875912  0.72010291  0.98976570    -0.11700
C2338       C  0.30630881  0.75363958  0.00284696     0.05300
C2339       C  0.32609795  0.78174554  0.51623627    -0.07000
C2340       C  0.35439172  0.78146673  0.01110928    -0.07700
C2341       C  0.36674279  0.74949396  0.99562542    -0.02300
C2342       C  0.34880312  0.71733100  0.98704654     0.04600
N2343       N  0.36068471  0.68210344  0.97505108     0.67100
H2344       H  0.30510870  0.69596258  0.98161624     0.16000
H2345       H  0.36905574  0.80474221  0.51967109     0.15700
N2346       N  0.31483745  0.81574431  0.53112353     0.74800
O2347       O  0.37323495  0.65959209  0.99479150    -0.38700
O2348       O  0.36172697  0.67571304  0.94454265    -0.38600
O2349       O  0.31645589  0.81944348  0.56197300    -0.39300
O2350       O  0.31094308  0.84546014  0.51372311    -0.39400
C2351       C  0.17940217  0.74049408  0.95411780    -0.11700
C2352       C  0.20852602  0.72990990  0.95298460     0.05300
C2353       C  0.21566712  0.69787500  0.93318651    -0.07000
C2354       C  0.19363409  0.67438097  0.91929470    -0.07700
C2355       C  0.16441549  0.68170651  0.92518544    -0.02300
C2356       C  0.15743254  0.71643307  0.94125749     0.04600
N2357       N  0.13041613  0.72626078  0.44428885     0.67100
H2358       H  0.17546998  0.76492076  0.46588485     0.16000
H2359       H  0.19963353  0.64847788  0.90619540     0.15700
N2360       N  0.24481905  0.68693608  0.92864533     0.74800
O2361       O  0.11854304  0.71884465  0.47127557    -0.38700
O2362       O  0.11712454  0.75256354  0.92872977    -0.38600
O2363       O  0.25461401  0.65866903  0.94467119    -0.39300
O2364       O  0.25752491  0.69789768  0.90303932    -0.39400
C2365       C  0.24657234  0.02654604  0.49820194    -0.11700
C2366       C  0.25591614  0.99492143  0.98324215     0.05300
C2367       C  0.23581258  0.96940057  0.96761908    -0.07000
C2368       C  0.20661912  0.97889546  0.96599279    -0.07700
C2369       C  0.19693526  0.01375882  0.97935227    -0.02300
C2370       C  0.21663739  0.03810806  0.99669768     0.04600
N2371       N  0.20826841  0.57109738  0.51111025     0.67100
H2372       H  0.26136255  0.04640351  0.51077787     0.16000
H2373       H  0.19179266  0.96013566  0.95228954     0.15700
N2374       N  0.24452398  0.93396534  0.95288163     0.74800
O2375       O  0.20245515  0.57089480  0.54129742    -0.38700
O2376       O  0.21343511  0.60308145  0.49719425    -0.38600
O2377       O  0.24233480  0.90292058  0.96907345    -0.39300
O2378       O  0.24633747  0.93214385  0.92201641    -0.39400
C2379       C  0.73204612  0.02663309  0.73846840    -0.11700
C2380       C  0.75066577  0.00260788  0.75671649     0.05300
C2381       C  0.73814533  0.97369358  0.77699466    -0.07000
C2382       C  0.70827661  0.97173018  0.78088324    -0.07700
C2383       C  0.69024478  0.99803797  0.76512002    -0.02300
C2384       C  0.70205008  0.52481201  0.74262714     0.04600
N2385       N  0.68378303  0.55114666  0.72546269     0.67100
H2386       H  0.74079126  0.54878793  0.72213318     0.16000
H2387       H  0.69938743  0.95160459  0.79862024     0.15700
N2388       N  0.75529162  0.94690893  0.79501146     0.74800
O2389       O  0.68041303  0.58485031  0.73684152    -0.38700
O2390       O  0.66667384  0.53828565  0.70341349    -0.38600
O2391       O  0.75955079  0.95259026  0.82538352    -0.39300
O2392       O  0.75858848  0.91331220  0.78337130    -0.39400
C2393       C  0.89857166  0.96158065  0.81140290    -0.11700
C2394       C  0.88805811  0.92844435  0.82706025     0.05300
C2395       C  0.85853828  0.92556442  0.83419596    -0.07000
C2396       C  0.83951847  0.95309489  0.82135287    -0.07700
C2397       C  0.84964455  0.98415321  0.80203341    -0.02300
C2398       C  0.87992029  0.98979286  0.79959143     0.04600
N2399       N  0.89230840  0.02255610  0.78327623     0.67100
H2400       H  0.92138231  0.96464569  0.80675366     0.16000
H2401       H  0.81665542  0.94825158  0.82436337     0.15700
N2402       N  0.84724763  0.89275037  0.85143499     0.74800
O2403       O  0.89978838  0.05195830  0.80015940    -0.38700
O2404       O  0.90326710  0.01774640  0.75540657    -0.38600
O2405       O  0.84791430  0.89270454  0.88245352    -0.39300
O2406       O  0.84138574  0.86165522  0.83603565    -0.39400
C2407       C  0.83875629  0.73596261  0.80083192    -0.11700
C2408       C  0.85240887  0.76567108  0.78282174     0.05300
C2409       C  0.83476986  0.79118621  0.76454949    -0.07000
C2410       C  0.80465315  0.78749618  0.76578164    -0.07700
C2411       C  0.79107905  0.75914620  0.78524910    -0.02300
C2412       C  0.80864122  0.73260765  0.80235598     0.04600
N2413       N  0.79652299  0.70162105  0.82114199     0.67100
H2414       H  0.85146329  0.71591241  0.81508876     0.16000
H2415       H  0.79180657  0.80785335  0.75201285     0.15700
N2416       N  0.84679798  0.82163973  0.74504733     0.74800
O2417       O  0.79360106  0.66847893  0.80805966    -0.38700
O2418       O  0.79652927  0.70449327  0.85207511    -0.38600
O2419       O  0.84824039  0.81690974  0.71434564    -0.39300
O2420       O  0.84846174  0.85560274  0.75675545    -0.39400
C2421       C  0.31771002  0.99481917  0.72772836    -0.11700
C2422       C  0.30008370  0.96601300  0.74175519     0.05300
C2423       C  0.31303523  0.93256645  0.75495601    -0.07000
C2424       C  0.34263005  0.92712271  0.75124883    -0.07700
C2425       C  0.35980447  0.95467763  0.73502212    -0.02300
C2426       C  0.34732393  0.98950392  0.72437993     0.04600
N2427       N  0.36367702  0.01788871  0.70683695     0.67100
H2428       H  0.30826071  0.02085933  0.71788319     0.16000
H2429       H  0.35182460  0.89990819  0.75887458     0.15700
N2430       N  0.29618334  0.40182982  0.76900619     0.74800
O2431       O  0.36446725  0.01585260  0.67588878    -0.38700
O2432       O  0.37080626  0.04934824  0.72099759    -0.38600
O2433       O  0.28926250  0.87272959  0.75170159    -0.39300
O2434       O  0.29461594  0.39953434  0.79987387    -0.39400
C2435       C  0.17344866  0.95469333  0.78449477    -0.11700
C2436       C  0.20311212  0.45917704  0.79175024     0.05300
C2437       C  0.21174001  0.47065923  0.82370379    -0.07000
C2438       C  0.19102872  0.48297498  0.84577843    -0.07700
C2439       C  0.16171064  0.48471463  0.83651570    -0.02300
C2440       C  0.15275394  0.96793072  0.80624919     0.04600
N2441       N  0.12330694  0.96762635  0.79561038     0.67100
H2442       H  0.16632560  0.94488078  0.76033528     0.16000
H2443       H  0.19832671  0.49392145  0.86951915     0.15700
N2444       N  0.24141560  0.47429803  0.83306427     0.74800
O2445       O  0.11430417  0.99521439  0.77815869    -0.38700
O2446       O  0.10916481  0.93601938  0.79583283    -0.38600
O2447       O  0.25298866  0.44717408  0.84893253    -0.39300
O2448       O  0.25360909  0.50731853  0.83270301    -0.39400
C2449       C  0.22678964  0.76067849  0.58900987    -0.11700
C2450       C  0.21828445  0.78191193  0.56126282     0.05300
C2451       C  0.19055638  0.79830829  0.56052410    -0.07000
C2452       C  0.17071413  0.78849786  0.58471524    -0.07700
C2453       C  0.17801439  0.76239331  0.60943010    -0.02300
C2454       C  0.20669810  0.75007408  0.61274295     0.04600
N2455       N  0.21501926  0.72341782  0.63789264     0.67100
H2456       H  0.24784635  0.74784323  0.59011836     0.16000
H2457       H  0.14888578  0.79866568  0.58254448     0.15700
N2458       N  0.18131102  0.82234467  0.53399568     0.74800
O2459       O  0.21101851  0.68749969  0.63310599    -0.38700
O2460       O  0.23260080  0.73455454  0.66009304    -0.38600
O2461       O  0.16278115  0.80905435  0.51370692    -0.39300
O2462       O  0.18446397  0.85865113  0.53689110    -0.39400
C2463       C  0.18345009  0.50183711  0.67793193    -0.11700
C2464       C  0.21207462  0.51335139  0.68488560     0.05300
C2465       C  0.22088005  0.55160413  0.67737891    -0.07000
C2466       C  0.19998057  0.57910310  0.66905417    -0.07700
C2467       C  0.17053735  0.56858503  0.66786344    -0.02300
C2468       C  0.16257496  0.52918245  0.67039595     0.04600
N2469       N  0.13311941  0.51683340  0.66822710     0.67100
H2470       H  0.17647054  0.47227054  0.68284207     0.16000
H2471       H  0.20651197  0.60926260  0.66629400     0.15700
N2472       N  0.25029124  0.56373796  0.68156554     0.74800
O2473       O  0.12366845  0.50164483  0.64182033    -0.38700
O2474       O  0.11933468  0.51165357  0.69434866    -0.38600
O2475       O  0.26863973  0.55313386  0.66103970    -0.39300
O2476       O  0.25864767  0.57987532  0.70800282    -0.39400
C2477       C  0.20106947  0.68209278  0.76620732    -0.11700
C2478       C  0.18957284  0.71461149  0.75039976     0.05300
C2479       C  0.20862888  0.74453724  0.74033270    -0.07000
C2480       C  0.23839686  0.73863788  0.74160600    -0.07700
C2481       C  0.24969539  0.70392465  0.75380824    -0.02300
C2482       C  0.23072138  0.67643938  0.76800634     0.04600
N2483       N  0.24069710  0.64089065  0.78167609     0.67100
H2484       H  0.18689570  0.65918935  0.77487738     0.16000
H2485       H  0.25268628  0.76102266  0.73239523     0.15700
N2486       N  0.19832375  0.78035715  0.72752049     0.74800
O2487       O  0.24408227  0.63855443  0.81243702    -0.38700
O2488       O  0.23716303  0.61001633  0.76522001    -0.38600
O2489       O  0.19905983  0.81008314  0.74575983    -0.39300
O2490       O  0.19546887  0.78449190  0.69685303    -0.39400
C2491       C  0.74215060  0.73470761  0.53697701    -0.11700
C2492       C  0.75805618  0.70425698  0.52385328     0.05300
C2493       C  0.74352185  0.67037565  0.51261828    -0.07000
C2494       C  0.71375820  0.66658759  0.51642781    -0.07700
C2495       C  0.69792067  0.69642446  0.53065699    -0.02300
C2496       C  0.71223503  0.73124633  0.54010907     0.04600
N2497       N  0.69711624  0.76232782  0.55493746     0.67100
H2498       H  0.75306084  0.76101810  0.54539233     0.16000
H2499       H  0.70316716  0.63934673  0.50984467     0.15700
N2500       N  0.75857217  0.63910346  0.99949767     0.74800
O2501       O  0.69616444  0.76465130  0.58585712    -0.38700
O2502       O  0.69111552  0.79170115  0.53790978    -0.38600
O2503       O  0.76437589  0.61024510  0.01725885    -0.39300
O2504       O  0.76021671  0.63604622  0.96867281    -0.39400
C2505       C  0.87366804  0.69371274  0.96110890    -0.11700
C2506       C  0.84684756  0.71155591  0.96316354     0.05300
C2507       C  0.83940349  0.74027872  0.94014663    -0.07000
C2508       C  0.85970155  0.75288150  0.91751714    -0.07700
C2509       C  0.88733100  0.73725032  0.91721150    -0.02300
C2510       C  0.89390611  0.70611602  0.93815219     0.04600
N2511       N  0.92175442  0.68932116  0.93871814     0.67100
H2512       H  0.87972340  0.67209548  0.97904339     0.16000
H2513       H  0.85419983  0.77618652  0.90091135     0.15700
N2514       N  0.81268726  0.76002492  0.94164345     0.74800
O2515       O  0.94043393  0.70190854  0.95915689    -0.38700
O2516       O  0.92490079  0.65635260  0.92579746    -0.38600
O2517       O  0.79356997  0.71898914  0.41204578    -0.39300
O2518       O  0.81151999  0.79135797  0.95770394    -0.39400
C2519       C  0.88504933  0.04112643  0.66950178    -0.11700
C2520       C  0.88229485  0.00429408  0.65499706     0.05300
C2521       C  0.85589980  0.98375855  0.65718061    -0.07000
C2522       C  0.83372094  0.99851583  0.67578988    -0.07700
C2523       C  0.83803439  0.03221921  0.69459515    -0.02300
C2524       C  0.86332298  0.05488917  0.68988725     0.04600
N2525       N  0.86779731  0.09104792  0.70664954     0.67100
H2526       H  0.90474773  0.05793784  0.66689612     0.16000
H2527       H  0.81471124  0.98045946  0.67926242     0.15700
N2528       N  0.85203227  0.94615124  0.64289928     0.74800
O2529       O  0.88303197  0.09216613  0.73259367    -0.38700
O2530       O  0.86364845  0.12210975  0.69109479    -0.38600
O2531       O  0.85595229  0.91671665  0.66067361    -0.39300
O2532       O  0.83820647  0.94259935  0.61608520    -0.39400
C2533       C  0.89865526  0.77174527  0.58629006    -0.11700
C2534       C  0.88903199  0.81000136  0.58854777     0.05300
C2535       C  0.85911545  0.81655401  0.58850588    -0.07000
C2536       C  0.83971523  0.78613504  0.58124636    -0.07700
C2537       C  0.84967769  0.74904936  0.57444887    -0.02300
C2538       C  0.87886922  0.74105331  0.58069725     0.04600
N2539       N  0.88844275  0.70188594  0.58038410     0.67100
H2540       H  0.92144504  0.76585775  0.58817385     0.16000
H2541       H  0.81725027  0.79271008  0.57702258     0.15700
N2542       N  0.84798538  0.85449116  0.59260361     0.74800
O2543       O  0.90349682  0.68918811  0.05147565    -0.38700
O2544       O  0.88057880  0.67895786  0.60277080    -0.38600
O2545       O  0.84380803  0.87514150  0.56748203    -0.39300
O2546       O  0.83403226  0.86137292  0.61821717    -0.39400
C2547       C  0.84486820  0.48923578  0.54376873    -0.11700
C2548       C  0.86054236  0.96382008  0.52399054     0.05300
C2549       C  0.84530650  0.93901732  0.50192368    -0.07000
C2550       C  0.81519362  0.93846120  0.50119603    -0.07700
C2551       C  0.79935485  0.96210247  0.52227197    -0.02300
C2552       C  0.81463885  0.48854681  0.54323261     0.04600
N2553       N  0.80008963  0.51497666  0.56408534     0.67100
H2554       H  0.85606307  0.50815246  0.56124861     0.16000
H2555       H  0.80419001  0.91859643  0.48434773     0.15700
N2556       N  0.86002620  0.91441316  0.47971679     0.74800
O2557       O  0.79607249  0.50596462  0.59371234    -0.38700
O2558       O  0.79880588  0.55017438  0.55584703    -0.38600
O2559       O  0.86000630  0.87827095  0.48463099    -0.39300
O2560       O  0.86622389  0.92719322  0.45164442    -0.39400
loop_ 
_geom_bond_atom_site_label_1 
_geom_bond_atom_site_label_2 
_geom_bond_distance 
_geom_bond_site_symmetry_2 
_ccdc_geom_bond_type 
C1            C2   1.414       .  A
C1            C6   1.419       .  A
C1           C66   1.496       .  S
C2            C3   1.400       .  A
C2            H7   1.084       .  S
C3            C4   1.401       .  A
C3          C782   1.476   1_554  S
C4            C5   1.402       .  A
C4            H8   1.085       .  S
C5            C6   1.416       .  A
C5         C1310   1.487   1_455  S
C6            H9   1.083       .  S
Zn10         O14   1.936       .  S
Zn10         O15   2.037       .  S
Zn10         O19   2.021       .  S
Zn10         O26   2.011       .  S
Zn11         O14   1.917       .  S
Zn11         O16   1.997       .  S
Zn11         O18   2.016       .  S
Zn11         O22   1.993       .  S
Zn12         O14   1.947       .  S
Zn12         O17   2.078   1_655  S
Zn12         O20   2.116   1_655  S
Zn12         O23   2.072   1_655  S
Zn13         O14   1.954       .  S
Zn13         O21   2.055       .  S
Zn13         O24   2.016       .  S
Zn13         O25   2.044       .  S
O15          C27   1.276       .  A
O16          C28   1.276       .  A
O17          C29   1.282   1_455  A
O18          C27   1.270       .  A
O19          C29   1.277       .  A
O20          C28   1.288   1_455  A
O21          C30   1.281       .  A
O22          C31   1.272       .  A
O23          C30   1.283   1_455  A
O24          C31   1.271       .  A
O25          C32   1.279       .  A
O26          C32   1.273       .  A
C27         C614   1.478       .  S
C28          C39   1.495   1_655  S
C29         C759   1.494   1_654  S
C30        C1285   1.487   1_655  S
C31         C600   1.473       .  S
C32         C628   1.489       .  S
C33         C572   1.474       .  S
C33          N34   1.366       .  A
C33         N678   1.361   1_554  A
N34          C35   1.361       .  A
C35         C617   1.473       .  S
C35         N676   1.350       .  A
N36          C37   1.352       .  A
N36         C675   1.350       .  A
C37         C586   1.477       .  S
C37          N38   1.359       .  A
N38         C673   1.364       .  A
C39          C40   1.415       .  A
C39          C44   1.414   1_455  A
C40          C41   1.415       .  A
C40          H45   1.083       .  S
C41          C42   1.404       .  A
C41          C65   1.480       .  S
C42          C43   1.400       .  A
C42          H46   1.085       .  S
C43          C44   1.403   1_455  A
C43         C103   1.485   1_455  S
C44          H47   1.084       .  S
Zn48         O52   1.961       .  S
Zn48         O53   2.033       .  S
Zn48         O57   2.012       .  S
Zn48         O64   2.026       .  S
Zn49         O52   1.939       .  S
Zn49         O54   2.099       .  S
Zn49         O56   2.068       .  S
Zn49         O60   2.069       .  S
Zn50         O52   1.925       .  S
Zn50         O55   2.001       .  S
Zn50         O58   2.018       .  S
Zn50         O61   2.022       .  S
Zn51         O52   1.927       .  S
Zn51         O59   2.035       .  S
Zn51         O62   2.019       .  S
Zn51         O63   1.982       .  S
O53          C65   1.278       .  A
O54          C66   1.286       .  A
O55          C67   1.272       .  A
O56          C65   1.283       .  A
O57          C67   1.271       .  A
O58          C66   1.279       .  A
O59          C68   1.276       .  A
O60          C69   1.281       .  A
O61          C68   1.270       .  A
O62          C69   1.275       .  A
O63          C70   1.272       .  A
O64          C70   1.274       .  A
C67         C533   1.464       .  S
C68         C547   1.479       .  S
C69          C81   1.493       .  S
C70         C558   1.481       .  S
C71         C502   1.485       .  S
C71          N72   1.366       .  A
C71        N1356   1.370       .  A
N72        C1353   1.360       .  A
C73         C516   1.480       .  S
C73          N74   1.347       .  A
C73        N1352   1.360       .  A
N74          C75   1.346       .  A
C75         C544   1.481   1_565  S
C75          N76   1.359       .  A
N76        C1351   1.370       .  A
C77          C78   1.414       .  A
C77          C82   1.413       .  A
C77         C144   1.497       .  S
C78          C79   1.411       .  A
C78          H83   1.083       .  S
C79          C80   1.404       .  A
C79         C107   1.483   1_455  S
C80          C81   1.406       .  A
C80          H84   1.084       .  S
C81          C82   1.412       .  A
C82          H85   1.084       .  S
Zn86         O90   1.927       .  S
Zn86         O91   2.019       .  S
Zn86         O95   2.002       .  S
Zn86        O102   2.021       .  S
Zn87         O90   1.939       .  S
Zn87         O92   2.090   1_655  S
Zn87         O94   2.055   1_655  S
Zn87         O98   2.067   1_655  S
Zn88         O90   1.925       .  S
Zn88         O93   2.028       .  S
Zn88         O96   2.002       .  S
Zn88         O99   2.008       .  S
Zn89         O90   1.938       .  S
Zn89         O97   2.018       .  S
Zn89        O100   2.040       .  S
Zn89        O101   2.038       .  S
O91         C103   1.276       .  A
O92         C104   1.284   1_455  A
O93         C105   1.273       .  A
O94         C103   1.280   1_455  A
O95         C105   1.274       .  A
O96         C104   1.276       .  A
O97         C106   1.272       .  A
O98         C107   1.282   1_455  A
O99         C106   1.273       .  A
O100        C107   1.279       .  A
O101        C108   1.279       .  A
O102        C108   1.274       .  A
C104        C115   1.489   1_655  S
C105        C474   1.476       .  S
C106        C589   1.465       .  S
C108        C488   1.498       .  S
C109        C460   1.499       .  S
C109        N110   1.364       .  A
C109        N114   1.368       .  A
N110        C111   1.362       .  A
C111        C603   1.470       .  S
C111        N112   1.350       .  A
N112        C113   1.352       .  A
C113        C477   1.496       .  S
C113        N114   1.366       .  A
C115        C116   1.412       .  A
C115        C120   1.410   1_455  A
C116        C117   1.413       .  A
C116        H121   1.083       .  S
C117        C118   1.413       .  A
C117        C145   1.489       .  S
C118        C119   1.404       .  A
C118        H122   1.084       .  S
C119        C120   1.403   1_455  A
C119        C669   1.491   1_455  S
C120        H123   1.084       .  S
Zn124       O128   1.905       .  S
Zn124       O129   1.993       .  S
Zn124       O133   1.982       .  S
Zn124       O140   1.964       .  S
Zn125       O128   1.927       .  S
Zn125       O130   2.011       .  S
Zn125      O1412   2.060       .  S
Zn125      O1416   2.015   1_545  S
Zn126       O128   1.945       .  S
Zn126       O131   2.057       .  S
Zn126       O134   2.065       .  S
Zn126       O137   2.062       .  S
Zn127       O128   1.954       .  S
Zn127       O135   2.071       .  S
Zn127       O139   2.058       .  S
Zn127      O1418   2.074   1_545  S
O129       C1421   1.268       .  A
O130        C142   1.276       .  A
O131        C143   1.278       .  A
O132      Zn1405   2.061       .  S
O132        C141   1.277       .  A
O133        C143   1.269       .  A
O134        C142   1.282       .  A
O135        C144   1.285       .  A
O136      Zn1405   2.015       .  S
O136        C145   1.276       .  A
O137        C144   1.282       .  A
O138      Zn1407   2.075       .  S
O138        C145   1.283       .  A
O139        C146   1.277       .  A
O140        C146   1.269       .  A
C141        C449   1.474       .  S
C141       O1409   1.268       .  A
C142        C643   1.477       .  S
C143        C435   1.486       .  S
C146        C519   1.483   1_545  S
C147        C418   1.489       .  S
C147        N148   1.369       .  A
C147        N792   1.364       .  A
N148        C149   1.364       .  A
C149        C432   1.493       .  S
C149        N790   1.354       .  A
N150        C151   1.348       .  A
N150        C789   1.354   1_554  A
C151        C530   1.477       .  S
C151        N152   1.359       .  A
N152        C787   1.364       .  A
C153        C154   1.412       .  A
C153        C158   1.415       .  A
C153        C220   1.497       .  S
C154        C155   1.410       .  A
C154        H159   1.084       .  S
C155        C156   1.404       .  A
C155        C895   1.493   1_554  S
C156        C157   1.410       .  A
C156        H160   1.084       .  S
C157        C158   1.414       .  A
C157        C184   1.494       .  S
C158        H161   1.083       .  S
Zn162       O166   1.916       .  S
Zn162       O167   2.023       .  S
Zn162       O171   2.077       .  S
Zn162       O178   2.035       .  S
Zn163       O166   1.935       .  S
Zn163       O168   2.059       .  S
Zn163       O170   2.060       .  S
Zn163       O174   2.041       .  S
Zn164       O166   1.896       .  S
Zn164       O169   1.960       .  S
Zn164       O172   1.966       .  S
Zn164       O175   1.942       .  S
Zn165       O166   1.928       .  S
Zn165       O173   2.054       .  S
Zn165       O176   2.057       .  S
Zn165       O177   2.068       .  S
O167        C179   1.278       .  A
O168        C180   1.279       .  A
O169        C181   1.267       .  A
O170        C179   1.281       .  A
O171        C181   1.279       .  A
O172        C180   1.264       .  A
O173        C182   1.279       .  A
O174        C183   1.281       .  A
O175        C182   1.263       .  A
O176        C183   1.284       .  A
O177        C184   1.282       .  A
O178        C184   1.279       .  A
C179        C871   1.476   1_554  S
C180        C404   1.481       .  S
C181        C575   1.474       .  S
C182        C393   1.483       .  S
C183        C191   1.487       .  S
C185        C631   1.496       .  S
C185       N1466   1.366       .  A
C185        N830   1.366   1_554  A
N186        C187   1.365       .  A
N186       C1465   1.366       .  A
C187        C407   1.487       .  S
C187        N828   1.349       .  A
N188        C189   1.351       .  A
N188        C827   1.350       .  A
C189        C379   1.479       .  S
C189       N1470   1.356       .  A
N190        C825   1.364       .  A
N190       C1469   1.356       .  A
C191        C192   1.415       .  A
C191        C196   1.415       .  A
C192        C193   1.407       .  A
C192        H197   1.083       .  S
C193        C194   1.405       .  A
C193       C1499   1.487   1_545  S
C194        C195   1.402       .  A
C194        H198   1.085       .  S
C195        C196   1.404       .  A
C195        C297   1.481       .  S
C196        H199   1.084       .  S
Zn200       O204   1.944       .  S
Zn200       O205   2.065       .  S
Zn200       O209   2.011       .  S
Zn200       O216   2.009       .  S
Zn201       O204   1.916       .  S
Zn201       O206   1.971       .  S
Zn201       O208   1.975       .  S
Zn201       O212   1.991       .  S
Zn202       O204   1.961       .  S
Zn202       O207   2.069       .  S
Zn202       O210   2.051       .  S
Zn202       O213   2.065       .  S
Zn203       O204   1.962       .  S
Zn203       O211   2.068       .  S
Zn203       O214   2.071       .  S
Zn203       O215   2.069       .  S
O205        C217   1.276       .  A
O206        C218   1.269       .  A
O207        C219   1.281       .  A
O208        C217   1.267       .  A
O209        C219   1.275       .  A
O210        C218   1.276       .  A
O211        C220   1.282       .  A
O212        C221   1.271       .  A
O213        C220   1.284       .  A
O214        C221   1.280       .  A
O215        C222   1.282       .  A
O216        C222   1.275       .  A
C217        C505   1.472       .  S
C218        C351   1.484       .  S
C219       C1473   1.487       .  S
C221        C362   1.494       .  S
C222        C271   1.477       .  S
C223        C561   1.483       .  S
C223        N224   1.370       .  A
C223        N228   1.361       .  A
N224        C225   1.363       .  A
C225        C365   1.495       .  S
C225        N226   1.352       .  A
N226        C227   1.348       .  A
C227        C334   1.471       .  S
C227        N228   1.358       .  A
C229        C230   1.417       .  A
C229        C234   1.418       .  A
C229        C296   1.495       .  S
C230        C231   1.408       .  A
C230        H235   1.084       .  S
C231        C232   1.399       .  A
C231        C819   1.479       .  S
C232        C233   1.396       .  A
C232        H236   1.086       .  S
C233        C234   1.410       .  A
C233        C256   1.479       .  S
C234        H237   1.083       .  S
Zn238       O242   1.923       .  S
Zn238       O243   2.010       .  S
Zn238       O247   1.991       .  S
Zn238       O254   2.030       .  S
Zn239       O242   1.933       .  S
Zn239       O244   2.062       .  S
Zn239       O246   2.072       .  S
Zn239       O250   2.093       .  S
Zn240       O242   1.951       .  S
Zn240       O245   2.037       .  S
Zn240       O248   2.034       .  S
Zn240       O251   2.002       .  S
Zn241       O242   1.916       .  S
Zn241       O249   1.988       .  S
Zn241       O252   1.985       .  S
Zn241       O253   2.005       .  S
O243        C255   1.274       .  A
O244        C256   1.281       .  A
O245        C257   1.277       .  A
O246        C255   1.282       .  A
O247        C257   1.273       .  A
O248        C256   1.279       .  A
O249        C258   1.271       .  A
O250        C259   1.285       .  A
O251        C258   1.269       .  A
O252        C259   1.274       .  A
O253        C260   1.269       .  A
O254        C260   1.275       .  A
C255        C795   1.493       .  S
C257        C421   1.487       .  S
C258        C337   1.459       .  S
C259        C267   1.488       .  S
C260        C323   1.471       .  S
C261        C446   1.485       .  S
C261        N262   1.369       .  A
C261        N906   1.366       .  A
N262        C263   1.362       .  A
C263        C320   1.479       .  S
C263        N904   1.348       .  A
N264        C265   1.346   1_556  A
N264        C903   1.348       .  A
C265        C348   1.482       .  S
C265        N266   1.357       .  A
N266        C901   1.366   1_554  A
C267        C268   1.415       .  A
C267        C272   1.415       .  A
C268        C269   1.412       .  A
C268        H273   1.083       .  S
C269        C270   1.406       .  A
C269        C294   1.484       .  S
C270        C271   1.398       .  A
C270        H274   1.085       .  S
C271        C272   1.398       .  A
C272        H275   1.084       .  S
Zn276       O280   1.880       .  S
Zn276       O281   1.969       .  S
Zn276       O285   1.948   1_545  S
Zn276       O292   1.966       .  S
Zn277       O280   1.919   1_565  S
Zn277       O288   2.004   1_565  S
Zn277      O1562   2.014       .  S
Zn277      O1564   2.070       .  S
Zn278       O280   1.943       .  S
Zn278       O283   2.066   1_545  S
Zn278       O289   2.076       .  S
Zn278      O1566   2.064   1_545  S
Zn279       O280   1.943       .  S
Zn279       O287   2.052       .  S
Zn279       O290   2.085       .  S
Zn279       O291   2.065       .  S
O281       C1573   1.266       .  A
O282      Zn1557   2.014       .  S
O282        C294   1.277       .  A
O283        C295   1.278       .  A
O284      Zn1557   2.070       .  S
O284        C293   1.277       .  A
O285        C295   1.267       .  A
O286      Zn1558   2.064       .  S
O286        C294   1.282       .  A
O287        C296   1.282       .  A
O288        C297   1.275       .  A
O289        C296   1.286       .  A
O290        C297   1.283       .  A
O291        C298   1.280       .  A
O292        C298   1.265       .  A
C293        C463   1.470       .  S
C293       O1561   1.266       .  A
C295        C376   1.487       .  S
C298        C306   1.480       .  S
C299        C491   1.492       .  S
C299        N300   1.359       .  A
C299        N304   1.366       .  A
N300        C301   1.359       .  A
C301        C390   1.479       .  S
C301        N302   1.355       .  A
N302        C303   1.359       .  A
C303        C309   1.486       .  S
C303        N304   1.368       .  A
C305        C306   1.396       .  A
C305        C310   1.399       .  A
C305        H312   1.084       .  S
C306        C307   1.417       .  A
C307        C308   1.403       .  A
C307        N314   1.430       .  S
C308        C309   1.404       .  A
C308        H313   1.084       .  S
C309        C310   1.415       .  A
C310        N311   1.427       .  S
N311        O315   1.260       .  A
N311        O316   1.262       .  A
N314        O318   1.262       .  A
N314        O317   1.262       .  A
C319        C320   1.409       .  A
C319        C324   1.398       .  A
C319        H326   1.083       .  S
C320        C321   1.410       .  A
C321        C322   1.402       .  A
C321        N968   1.426       .  S
C322        C323   1.404       .  A
C322        H327   1.082       .  S
C323        C324   1.404       .  A
C324        N325   1.429       .  S
N325        O329   1.262       .  A
N325        O330   1.262       .  A
N328        C961   1.426       .  S
N328        O332   1.261       .  A
N328        O331   1.261       .  A
C333        C334   1.403       .  A
C333        C338   1.395       .  A
C333        H340   1.085       .  S
C334        C335   1.417       .  A
C335        C336   1.400       .  A
C335        N342   1.429       .  S
C336        C337   1.395       .  A
C336        H341   1.084       .  S
C337        C338   1.407       .  A
C338        N339   1.432       .  S
N339        O343   1.262       .  A
N339        O344   1.261       .  A
N342        O346   1.261       .  A
N342        O345   1.262       .  A
C347        C348   1.410       .  A
C347        C352   1.400       .  A
C347        H354   1.078       .  S
C348        C349   1.407       .  A
C349        C350   1.399       .  A
C349        N356   1.429       .  S
C350        C351   1.410       .  A
C350        H355   1.077       .  S
C351        C352   1.408       .  A
C352        N353   1.429       .  S
N353        O357   1.262       .  A
N353        O358   1.262       .  A
N356        O360   1.262       .  A
N356        O359   1.262       .  A
C361        C362   1.413       .  A
C361        C366   1.406       .  A
C361        H368   1.080       .  S
C362        C363   1.409       .  A
C363        C364   1.398       .  A
C363        N370   1.428       .  S
C364        C365   1.410       .  A
C364        H369   1.076       .  S
C365        C366   1.412       .  A
C366        N367   1.429       .  S
N367        O371   1.262       .  A
N367        O372   1.262       .  A
N370        O374   1.262       .  A
N370        O373   1.262       .  A
C375        C376   1.411       .  A
C375        C380   1.396       .  A
C375        H382   1.081       .  S
C376       C1657   1.410       .  A
C377        C378   1.400       .  A
C377       C1656   1.410       .  A
C377        N384   1.429       .  S
C378       C1659   1.407       .  A
C378        H383   1.080       .  S
C379        C380   1.409       .  A
C379       C1658   1.407       .  A
C380        N381   1.430       .  S
N381        O385   1.262       .  A
N381        O386   1.262   1_565  A
N384        O388   1.262       .  A
N384        O387   1.262       .  A
C389        C390   1.401       .  A
C389        C394   1.394       .  A
C389        H396   1.083       .  S
C390        C391   1.412       .  A
C391        C392   1.400       .  A
C391        N398   1.427       .  S
C392        C393   1.401       .  A
C392        H397   1.082       .  S
C393        C394   1.420       .  A
C394        N395   1.431       .  S
N395        O399   1.262       .  A
N395        O400   1.262       .  A
N398        O402   1.261       .  A
N398        O401   1.262       .  A
C403        C404   1.397   1_565  A
C403        C408   1.398       .  A
C403        H410   1.082       .  S
C404        C405   1.419       .  A
C405        C406   1.400       .  A
C405        N412   1.429       .  S
C406        C407   1.401   1_545  A
C406        H411   1.081       .  S
C407        C408   1.419       .  A
C408        N409   1.429       .  S
N409        O413   1.262       .  A
N409       O1054   1.262       .  A
N412        O416   1.262       .  A
N412        O415   1.262       .  A
O414       N1049   1.262       .  A
C417        C418   1.408       .  A
C417        C422   1.408       .  A
C417        H424   1.084       .  S
C418       C1059   1.413       .  A
C419       C1058   1.413       .  A
C419       C1060   1.397       .  A
C419        N426   1.429       .  S
C420        C421   1.403       .  A
C420       C1059   1.397       .  A
C420       H1065   1.084       .  S
C421        C422   1.414       .  A
C422        N423   1.430       .  S
N423        O427   1.262       .  A
N423        O428   1.261       .  A
H425       C1060   1.084       .  S
N426        O430   1.261       .  A
N426        O429   1.262       .  A
C431        C432   1.410       .  A
C431        C436   1.397       .  A
C431       H1078   1.074       .  S
C432        C433   1.411       .  A
C433        C434   1.404       .  A
C433        N440   1.428       .  S
C434        C435   1.411       .  A
C434        H439   1.081       .  S
C435        C436   1.407       .  A
C436       N1077   1.429       .  S
N437       C1076   1.429       .  S
N437        O441   1.262       .  A
N437       O1082   1.262       .  A
H438       C1071   1.076       .  S
N440        O444   1.262       .  A
N440        O443   1.262       .  A
O442       N1077   1.262       .  A
C445       C1086   1.406       .  A
C445       C1090   1.401       .  A
C445        H452   1.082   1_556  S
C446        C447   1.413       .  A
C446       C1085   1.405       .  A
C447        C448   1.403       .  A
C447        N454   1.427       .  S
C448        C449   1.402       .  A
C448        H453   1.082       .  S
C449        C450   1.409       .  A
C450       C1085   1.400       .  A
C450       N2371   1.428       .  S
N451       C2370   1.428   1_554  S
N451        O455   1.262       .  A
N451        O456   1.262   1_554  A
N454        O458   1.261       .  A
N454        O457   1.262       .  A
C459        C460   1.412       .  A
C459       C1744   1.407       .  A
C459       H1746   1.084       .  S
C460        C461   1.418       .  A
C461        C462   1.402       .  A
C461        N468   1.428       .  S
C462        C463   1.398       .  A
C462        H467   1.084       .  S
C463       C1744   1.405       .  A
C464       C1739   1.407       .  A
C464       C1743   1.405   1_545  A
C464        N465   1.430       .  S
N465        O469   1.262       .  A
N465        O470   1.262       .  A
H466       C1739   1.084       .  S
N468        O472   1.262       .  A
N468        O471   1.262       .  A
C473        C474   1.395       .  A
C473        C478   1.395       .  A
C473        H480   1.084       .  S
C474        C475   1.410       .  A
C475        C476   1.406       .  A
C475        N482   1.429       .  S
C476        C477   1.410       .  A
C476        H481   1.083       .  S
C477        C478   1.422       .  A
C478        N479   1.429       .  S
N479        O483   1.262       .  A
N479        O484   1.262       .  A
N482        O486   1.262       .  A
N482        O485   1.262       .  A
C487        C488   1.409       .  A
C487        C492   1.404       .  A
C487        H494   1.081       .  S
C488        C489   1.418       .  A
C489        C490   1.404       .  A
C489        N496   1.430       .  S
C490        C491   1.405       .  A
C490        H495   1.082       .  S
C491        C492   1.412       .  A
C492        N493   1.428       .  S
N493        O497   1.262       .  A
N493        O498   1.262       .  A
N496        O500   1.262       .  A
N496        O499   1.262       .  A
C501        C502   1.404       .  A
C501        C506   1.401       .  A
C501        H508   1.082       .  S
C502        C503   1.415       .  A
C503        C504   1.403       .  A
C503       N1790   1.429       .  S
C504        C505   1.402       .  A
C504        H509   1.082       .  S
C505        C506   1.409       .  A
C506        N507   1.428       .  S
N507        O511   1.262       .  A
N507        O512   1.262       .  A
N510       C1783   1.429       .  S
N510        O514   1.262       .  A
N510       O1793   1.262       .  A
O513       N1790   1.262       .  A
C515        C520   1.399       .  A
C515       C1796   1.410       .  A
C515        H522   1.083       .  S
C516        C517   1.407       .  A
C516       C1795   1.410       .  A
C517        C518   1.397       .  A
C517        N524   1.428       .  S
C518        C519   1.410       .  A
C518        H523   1.082       .  S
C519       C1800   1.409       .  A
C520       C1799   1.409       .  A
C520        N521   1.429       .  S
N521        O525   1.262       .  A
N521        O526   1.262       .  A
N524        O528   1.262   1_565  A
N524        O527   1.261       .  A
C529        C530   1.402       .  A
C529        C534   1.399       .  A
C529        H536   1.082       .  S
C530        C531   1.417       .  A
C531        C532   1.400       .  A
C531        N538   1.429       .  S
C532        C533   1.395       .  A
C532        H537   1.082       .  S
C533        C534   1.411       .  A
C534        N535   1.431       .  S
N535        O539   1.262       .  A
N535        O540   1.262       .  A
N538        O542   1.262       .  A
N538        O541   1.262       .  A
C543        C544   1.406       .  A
C543        C548   1.397       .  A
C543        H550   1.084   1_545  S
C544        C545   1.409       .  A
C545        C546   1.408       .  A
C545        N552   1.430       .  S
C546        C547   1.409       .  A
C546        H551   1.084       .  S
C547        C548   1.405       .  A
C548        N549   1.428       .  S
N549        O553   1.262   1_545  A
N549        O554   1.262       .  A
N552        O556   1.261       .  A
N552        O555   1.262       .  A
C557        C558   1.404       .  A
C557        C562   1.398       .  A
C557        H564   1.083       .  S
C558        C559   1.413       .  A
C559        C560   1.401       .  A
C559        N566   1.429       .  S
C560        C561   1.404       .  A
C560        H565   1.081       .  S
C561        C562   1.414       .  A
C562        N563   1.429       .  S
N563        O567   1.262       .  A
N563        O568   1.261       .  A
N566        O570   1.261       .  A
N566        O569   1.262       .  A
C571        C572   1.403       .  A
C571        C576   1.403       .  A
C571        H578   1.082       .  S
C572        C573   1.409       .  A
C573        C574   1.398       .  A
C573       N1220   1.429   1_554  S
C574        C575   1.404       .  A
C574        H579   1.082       .  S
C575        C576   1.411       .  A
C576        N577   1.429       .  S
N577        O581   1.262       .  A
N577        O582   1.262       .  A
N580       C1213   1.429       .  S
N580        O584   1.262       .  A
N580        O583   1.262       .  A
C585        C586   1.407       .  A
C585        C590   1.398       .  A
C585        H592   1.082       .  S
C586        C587   1.412       .  A
C587        C588   1.400       .  A
C587        N594   1.429       .  S
C588        C589   1.402       .  A
C588        H593   1.083       .  S
C589        C590   1.404       .  A
C590        N591   1.428       .  S
N591        O595   1.262       .  A
N591        O596   1.262       .  A
N594        O598   1.262       .  A
N594       O1237   1.262       .  A
O597       N1234   1.262       .  A
C599        C600   1.401       .  A
C599        C604   1.406       .  A
C599        H606   1.082       .  S
C600        C601   1.409       .  A
C601        C602   1.391       .  A
C601        N608   1.425       .  S
C602        C603   1.397       .  A
C602        H607   1.083       .  S
C603        C604   1.415       .  A
C604        N605   1.428       .  S
N605        O609   1.261       .  A
N605        O610   1.262       .  A
N608        O612   1.261       .  A
N608        O611   1.262       .  A
C613        C614   1.403       .  A
C613        C618   1.404       .  A
C613        H620   1.084       .  S
C614        C615   1.414       .  A
C615        C616   1.398       .  A
C615        N622   1.425       .  S
C616        C617   1.395       .  A
C616        H621   1.084       .  S
C617        C618   1.410       .  A
C618        N619   1.430       .  S
N619       O1263   1.262       .  A
N619        O624   1.262       .  A
N622        O626   1.261       .  A
N622        O625   1.262       .  A
O623       N1259   1.261       .  A
C627        C632   1.405       .  A
C627       C1908   1.406       .  A
C627        H634   1.083   1_565  S
C628        C629   1.412       .  A
C628       C1907   1.406       .  A
C629        C630   1.402       .  A
C629        N636   1.428   1_554  S
C630        C631   1.407       .  A
C630        H635   1.082   1_554  S
C631       C1912   1.418       .  A
C632       C1911   1.418       .  A
C632        N633   1.429   1_565  S
N633        O637   1.262   1_545  A
N633        O638   1.262       .  A
N636        O640   1.262       .  A
N636        O639   1.262       .  A
C641        C642   1.416       .  A
C641        C646   1.419       .  A
C641        C706   1.497       .  S
C642        C643   1.402       .  A
C642        H647   1.084       .  S
C643        C644   1.400       .  A
C644        C645   1.401       .  A
C644        H648   1.085       .  S
C645        C646   1.416       .  A
C645       C1950   1.485       .  S
C646        H649   1.083       .  S
Zn650       O654   1.933       .  S
Zn650       O655   2.033       .  S
Zn650       O659   2.015       .  S
Zn650       O666   2.006       .  S
Zn651       O654   1.917       .  S
Zn651       O656   1.999       .  S
Zn651       O658   2.018       .  S
Zn651       O662   1.996       .  S
Zn652       O654   1.945       .  S
Zn652       O657   2.073   1_655  S
Zn652       O660   2.109   1_655  S
Zn652       O663   2.070   1_655  S
Zn653       O654   1.955       .  S
Zn653       O661   2.051       .  S
Zn653       O664   2.014       .  S
Zn653       O665   2.038       .  S
O655        C667   1.275       .  A
O656        C668   1.277       .  A
O657        C669   1.282   1_455  A
O658        C667   1.270       .  A
O659        C669   1.276       .  A
O660        C668   1.287   1_455  A
O661        C670   1.280   1_655  A
O662        C671   1.272       .  A
O663        C670   1.283       .  A
O664        C671   1.271       .  A
O665        C672   1.278       .  A
O666        C672   1.273       .  A
C667       C1254   1.476       .  S
C668        C679   1.495   1_655  S
C670       C1925   1.485       .  S
C671       C1240   1.473       .  S
C672       C1268   1.485       .  S
C673       C1212   1.475       .  S
C673        N674   1.364       .  A
N674        C675   1.358       .  A
C675       C1257   1.472       .  S
N676        C677   1.348   1_554  A
C677       C1226   1.465       .  S
C677        N678   1.356       .  A
C679        C680   1.416       .  A
C679        C684   1.413   1_455  A
C680        C681   1.416       .  A
C680        H685   1.083       .  S
C681        C682   1.403       .  A
C681        C705   1.480       .  S
C682        C683   1.399       .  A
C682        H686   1.085       .  S
C683        C684   1.401   1_455  A
C683        C743   1.481   1_455  S
C684        H687   1.084       .  S
Zn688       O692   1.965       .  S
Zn688       O693   2.037       .  S
Zn688       O697   2.014       .  S
Zn688       O704   2.029       .  S
Zn689       O692   1.940       .  S
Zn689       O694   2.104       .  S
Zn689       O696   2.068       .  S
Zn689       O700   2.076       .  S
Zn690       O692   1.926       .  S
Zn690       O695   1.997       .  S
Zn690       O698   2.019       .  S
Zn690       O701   2.020       .  S
Zn691       O692   1.925       .  S
Zn691       O699   2.035       .  S
Zn691       O702   2.016       .  S
Zn691       O703   1.978       .  S
O693        C705   1.278       .  A
O694        C706   1.287       .  A
O695        C707   1.272       .  A
O696        C705   1.283       .  A
O697        C707   1.271       .  A
O698        C706   1.279       .  A
O699        C708   1.276       .  A
O700        C709   1.282       .  A
O701        C708   1.270       .  A
O702        C709   1.274       .  A
O703        C710   1.272       .  A
O704        C710   1.275       .  A
C707       C1173   1.464       .  S
C708       C1187   1.478       .  S
C709        C721   1.494       .  S
C710       C1198   1.482       .  S
C711       C1142   1.484       .  S
C711        N712   1.367       .  A
C711       N1996   1.370       .  A
N712       C1993   1.361       .  A
C713       C1156   1.481       .  S
C713       N1992   1.361       .  A
C713        N714   1.347       .  A
N714        C715   1.346       .  A
C715       C1184   1.480   1_565  S
C715        N716   1.359       .  A
N716       C1991   1.370       .  A
C717        C718   1.415       .  A
C717        C722   1.413       .  A
C717        C784   1.499       .  S
C718        C719   1.411       .  A
C718        H723   1.083       .  S
C719        C720   1.405       .  A
C719        C747   1.484   1_455  S
C720        C721   1.406       .  A
C720        H724   1.084       .  S
C721        C722   1.413       .  A
C722        H725   1.084       .  S
Zn726       O730   1.930       .  S
Zn726       O731   2.017       .  S
Zn726       O735   2.003       .  S
Zn726       O742   2.029       .  S
Zn727       O730   1.938       .  S
Zn727       O732   2.090   1_655  S
Zn727       O734   2.053   1_655  S
Zn727       O738   2.067   1_655  S
Zn728       O730   1.919       .  S
Zn728       O733   2.022       .  S
Zn728       O736   1.995       .  S
Zn728       O739   1.994       .  S
Zn729       O730   1.939       .  S
Zn729       O737   2.017       .  S
Zn729       O740   2.041       .  S
Zn729       O741   2.040       .  S
O731        C743   1.277       .  A
O732        C744   1.285   1_455  A
O733        C745   1.271       .  A
O734        C743   1.280   1_455  A
O735        C745   1.273       .  A
O736        C744   1.274       .  A
O737        C746   1.271       .  A
O738        C747   1.282   1_455  A
O739        C746   1.273       .  A
O740        C747   1.279       .  A
O741        C748   1.279       .  A
O742        C748   1.275       .  A
C744        C755   1.485   1_655  S
C745       C1114   1.474       .  S
C746       C1229   1.468       .  S
C748       C1128   1.500       .  S
C749       C1100   1.500       .  S
C749        N750   1.365       .  A
C749        N754   1.368       .  A
N750        C751   1.363       .  A
C751       C1243   1.471       .  S
C751        N752   1.350       .  A
N752        C753   1.351       .  A
C753       C1117   1.496       .  S
C753        N754   1.365       .  A
C755        C756   1.409       .  A
C755        C760   1.410   1_455  A
C756        C757   1.410       .  A
C756        H761   1.084       .  S
C757        C758   1.415       .  A
C757        C785   1.487       .  S
C758        C759   1.406       .  A
C758        H762   1.084       .  S
C759        C760   1.404   1_455  A
C760        H763   1.084       .  S
Zn764       O768   1.904       .  S
Zn764       O769   1.997       .  S
Zn764       O773   1.981       .  S
Zn764       O780   1.968       .  S
Zn765       O768   1.927       .  S
Zn765       O770   2.007       .  S
Zn765      O2052   2.060       .  S
Zn765      O2056   2.009   1_545  S
Zn766       O768   1.944       .  S
Zn766       O771   2.055       .  S
Zn766       O774   2.065       .  S
Zn766       O777   2.062       .  S
Zn767       O768   1.951       .  S
Zn767       O775   2.078       .  S
Zn767      O2058   2.075   1_545  S
Zn767       O779   2.061       .  S
O769       C2061   1.268       .  A
O770        C782   1.275       .  A
O771        C783   1.278       .  A
O772      Zn2045   2.060       .  S
O772        C781   1.277       .  A
O773        C783   1.269       .  A
O774        C782   1.282       .  A
O775        C784   1.285       .  A
O776      Zn2045   2.009       .  S
O776        C785   1.275       .  A
O777        C784   1.282       .  A
O778      Zn2047   2.074       .  S
O778        C785   1.284       .  A
O779        C786   1.278       .  A
O780        C786   1.270       .  A
C781       C1089   1.475       .  S
C781       O2049   1.268       .  A
C783       C1075   1.485       .  S
C786       C1159   1.485   1_545  S
C787       C1058   1.488       .  S
C787        N788   1.369   1_554  A
N788        C789   1.364       .  A
C789       C1072   1.493       .  S
N790        C791   1.349       .  A
C791       C1170   1.479       .  S
C791        N792   1.360       .  A
C793        C794   1.412       .  A
C793        C798   1.415       .  A
C793        C860   1.496       .  S
C794        C795   1.410       .  A
C794        H799   1.084       .  S
C795        C796   1.404       .  A
C796        C797   1.409       .  A
C796        H800   1.084       .  S
C797        C798   1.414       .  A
C797        C824   1.493       .  S
C798        H801   1.083       .  S
Zn802       O806   1.920       .  S
Zn802       O807   2.021       .  S
Zn802       O811   2.076       .  S
Zn802       O818   2.036       .  S
Zn803       O806   1.941       .  S
Zn803       O808   2.057       .  S
Zn803       O810   2.067       .  S
Zn803       O814   2.045       .  S
Zn804       O806   1.901       .  S
Zn804       O809   1.960       .  S
Zn804       O812   1.967       .  S
Zn804       O815   1.947       .  S
Zn805       O806   1.932       .  S
Zn805       O813   2.057       .  S
Zn805       O816   2.060       .  S
Zn805       O817   2.066       .  S
O807        C819   1.277       .  A
O808        C820   1.280       .  A
O809        C821   1.267       .  A
O810        C819   1.281       .  A
O811        C821   1.279       .  A
O812        C820   1.264       .  A
O813        C822   1.279       .  A
O814        C823   1.281       .  A
O815        C822   1.263       .  A
O816        C823   1.284       .  A
O817        C824   1.281       .  A
O818        C824   1.279       .  A
C820       C1044   1.481       .  S
C821       C1215   1.473       .  S
C822       C1033   1.485       .  S
C823        C831   1.488       .  S
C825       C1271   1.493       .  S
C825       N2106   1.367       .  A
N826       C2105   1.367       .  A
N826        C827   1.366       .  A
C827       C1047   1.487       .  S
N828        C829   1.351   1_554  A
C829       C1019   1.483       .  S
C829       N2110   1.359       .  A
N830       C2109   1.359       .  A
C831        C832   1.416       .  A
C831        C836   1.415       .  A
C832        C833   1.409       .  A
C832        H837   1.083       .  S
C833        C834   1.404       .  A
C833       C2139   1.488   1_545  S
C834        C835   1.402       .  A
C834        H838   1.085       .  S
C835        C836   1.404       .  A
C835        C937   1.481       .  S
C836        H839   1.084       .  S
Zn840       O844   1.942       .  S
Zn840       O845   2.069       .  S
Zn840       O849   2.016       .  S
Zn840       O856   2.009       .  S
Zn841       O844   1.915       .  S
Zn841       O846   1.972       .  S
Zn841       O848   1.975       .  S
Zn841       O852   1.993       .  S
Zn842       O844   1.959       .  S
Zn842       O847   2.068       .  S
Zn842       O850   2.045       .  S
Zn842       O853   2.062       .  S
Zn843       O844   1.959       .  S
Zn843       O851   2.068       .  S
Zn843       O854   2.070       .  S
Zn843       O855   2.065       .  S
O845        C857   1.277       .  A
O846        C858   1.270       .  A
O847        C859   1.280       .  A
O848        C857   1.267       .  A
O849        C859   1.276       .  A
O850        C858   1.276       .  A
O851        C860   1.282       .  A
O852        C861   1.271       .  A
O853        C860   1.283       .  A
O854        C861   1.280       .  A
O855        C862   1.281       .  A
O856        C862   1.276       .  A
C857       C1145   1.474       .  S
C858        C991   1.483       .  S
C859       C2113   1.488       .  S
C861       C1002   1.494       .  S
C862        C911   1.476       .  S
C863       C1201   1.483       .  S
C863        N864   1.371       .  A
C863        N868   1.360       .  A
N864        C865   1.364       .  A
C865       C1005   1.497       .  S
C865        N866   1.353       .  A
N866        C867   1.347       .  A
C867        C974   1.472       .  S
C867        N868   1.357       .  A
C869        C870   1.416       .  A
C869        C874   1.420       .  A
C869        C936   1.496       .  S
C870        C871   1.407       .  A
C870        H875   1.084       .  S
C871        C872   1.398       .  A
C872        C873   1.396       .  A
C872        H876   1.086       .  S
C873        C874   1.412       .  A
C873        C896   1.480       .  S
C874        H877   1.083       .  S
Zn878       O882   1.924       .  S
Zn878       O883   2.011       .  S
Zn878       O887   1.988       .  S
Zn878       O894   2.032       .  S
Zn879       O882   1.932       .  S
Zn879       O884   2.064       .  S
Zn879       O886   2.073       .  S
Zn879       O890   2.091       .  S
Zn880       O882   1.952       .  S
Zn880       O885   2.039       .  S
Zn880       O888   2.038       .  S
Zn880       O891   2.001       .  S
Zn881       O882   1.916       .  S
Zn881       O889   1.988       .  S
Zn881       O892   1.985       .  S
Zn881       O893   2.009       .  S
O883        C895   1.274       .  A
O884        C896   1.281       .  A
O885        C897   1.277       .  A
O886        C895   1.282       .  A
O887        C897   1.273       .  A
O888        C896   1.279       .  A
O889        C898   1.271       .  A
O890        C899   1.285       .  A
O891        C898   1.269       .  A
O892        C899   1.274       .  A
O893        C900   1.269       .  A
O894        C900   1.275       .  A
C897       C1061   1.488       .  S
C898        C977   1.458       .  S
C899        C907   1.487       .  S
C900        C963   1.473       .  S
C901       C1086   1.486       .  S
C901        N902   1.370       .  A
N902        C903   1.363       .  A
C903        C960   1.480       .  S
N904        C905   1.346       .  A
C905        C988   1.482       .  S
C905        N906   1.357       .  A
C907        C908   1.414       .  A
C907        C912   1.415       .  A
C908        C909   1.411       .  A
C908        H913   1.083       .  S
C909        C910   1.405       .  A
C909        C934   1.482       .  S
C910        C911   1.397       .  A
C910        H914   1.085       .  S
C911        C912   1.397       .  A
C912        H915   1.084       .  S
Zn916       O920   1.880       .  S
Zn916       O921   1.972       .  S
Zn916       O925   1.956   1_545  S
Zn916       O932   1.965       .  S
Zn917       O920   1.916   1_565  S
Zn917      O2202   2.013       .  S
Zn917      O2204   2.068       .  S
Zn917       O928   2.001   1_565  S
Zn918       O920   1.940       .  S
Zn918       O923   2.069   1_545  S
Zn918      O2206   2.060   1_545  S
Zn918       O929   2.081       .  S
Zn919       O920   1.943       .  S
Zn919       O927   2.048       .  S
Zn919       O930   2.085       .  S
Zn919       O931   2.057       .  S
O921       C2213   1.266       .  A
O922      Zn2197   2.013       .  S
O922        C934   1.278       .  A
O923        C935   1.279       .  A
O924      Zn2197   2.068       .  S
O924        C933   1.277       .  A
O925        C935   1.267       .  A
O926      Zn2198   2.060       .  S
O926        C934   1.282       .  A
O927        C936   1.281       .  A
O928        C937   1.274       .  A
O929        C936   1.287       .  A
O930        C937   1.283       .  A
O931        C938   1.280       .  A
O932        C938   1.266       .  A
C933       C1103   1.470       .  S
C933       O2201   1.266       .  A
C935       C1016   1.489       .  S
C938        C946   1.478       .  S
C939       C1131   1.498       .  S
C939        N940   1.361       .  A
C939        N944   1.365       .  A
N940        C941   1.360       .  A
C941       C1030   1.483       .  S
C941        N942   1.355       .  A
N942        C943   1.359       .  A
C943        C949   1.485       .  S
C943        N944   1.367       .  A
C945        C946   1.396       .  A
C945        C950   1.398       .  A
C945        H952   1.084       .  S
C946        C947   1.416       .  A
C947        C948   1.402       .  A
C947        N954   1.430       .  S
C948        C949   1.404       .  A
C948        H953   1.084       .  S
C949        C950   1.415       .  A
C950        N951   1.427       .  S
N951        O955   1.260       .  A
N951        O956   1.262       .  A
N954        O958   1.262       .  A
N954        O957   1.262       .  A
C959        C960   1.409       .  A
C959        C964   1.398       .  A
C959        H966   1.083       .  S
C960        C961   1.410       .  A
C961        C962   1.403       .  A
C962        C963   1.404       .  A
C962        H967   1.082       .  S
C963        C964   1.405       .  A
C964        N965   1.429       .  S
N965        O969   1.262       .  A
N965        O970   1.262       .  A
N968        O972   1.261       .  A
N968        O971   1.262       .  A
C973        C974   1.404       .  A
C973        C978   1.394       .  A
C973        H980   1.085       .  S
C974        C975   1.417       .  A
C975        C976   1.400       .  A
C975        N982   1.429       .  S
C976        C977   1.395       .  A
C976        H981   1.084       .  S
C977        C978   1.406       .  A
C978        N979   1.432       .  S
N979        O983   1.262       .  A
N979        O984   1.261       .  A
N982        O986   1.261       .  A
N982        O985   1.262       .  A
C987        C988   1.410       .  A
C987        C992   1.399       .  A
C987        H994   1.078       .  S
C988        C989   1.407       .  A
C989        C990   1.399       .  A
C989        N996   1.429       .  S
C990        C991   1.410       .  A
C990        H995   1.077       .  S
C991        C992   1.409       .  A
C992        N993   1.429       .  S
N993        O997   1.262       .  A
N993        O998   1.262       .  A
N996       O1000   1.262       .  A
N996        O999   1.262       .  A
C1001      C1002   1.413       .  A
C1001      C1006   1.407       .  A
C1001      H1008   1.079       .  S
C1002      C1003   1.409       .  A
C1003      C1004   1.398       .  A
C1003      N1010   1.429       .  S
C1004      C1005   1.410       .  A
C1004      H1009   1.074       .  S
C1005      C1006   1.412       .  A
C1006      N1007   1.429       .  S
N1007      O1011   1.262       .  A
N1007      O1012   1.262       .  A
N1010      O1014   1.262       .  A
N1010      O1013   1.262       .  A
C1015      C1016   1.412       .  A
C1015      C1020   1.398       .  A
C1015      H1022   1.081       .  S
C1016      C2297   1.411       .  A
C1017      C2296   1.411       .  A
C1017      C1018   1.400       .  A
C1017      N1024   1.429       .  S
C1018      C2299   1.407       .  A
C1018      H1023   1.081       .  S
C1019      C2298   1.407       .  A
C1019      C1020   1.409       .  A
C1020      N1021   1.429       .  S
N1021      O1025   1.262       .  A
N1021      O1026   1.262       .  A
N1024      O1028   1.262       .  A
N1024      O1027   1.262       .  A
C1029      C1030   1.402       .  A
C1029      C1034   1.396       .  A
C1029      H1036   1.082       .  S
C1030      C1031   1.413       .  A
C1031      C1032   1.401       .  A
C1031      N1038   1.427       .  S
C1032      C1033   1.401       .  A
C1032      H1037   1.082       .  S
C1033      C1034   1.421       .  A
C1034      N1035   1.431       .  S
N1035      O1039   1.262       .  A
N1035      O1040   1.262       .  A
N1038      O1042   1.261       .  A
N1038      O1041   1.262       .  A
C1043      C1044   1.397   1_565  A
C1043      C1048   1.398       .  A
C1043      H1050   1.082       .  S
C1044      C1045   1.419       .  A
C1045      C1046   1.400       .  A
C1045      N1052   1.429       .  S
C1046      C1047   1.401   1_545  A
C1046      H1051   1.081       .  S
C1047      C1048   1.420       .  A
C1048      N1049   1.429       .  S
N1049      O1053   1.262       .  A
N1052      O1056   1.262       .  A
N1052      O1055   1.262       .  A
C1057      C1058   1.408   1_556  A
C1057      C1062   1.408       .  A
C1057      H1064   1.084       .  S
C1059      N1066   1.429       .  S
C1060      C1061   1.404   1_554  A
C1061      C1062   1.414       .  A
C1062      N1063   1.430       .  S
N1063      O1067   1.262       .  A
N1063      O1068   1.261       .  A
N1066      O1070   1.261       .  A
N1066      O1069   1.262       .  A
C1071      C1072   1.410       .  A
C1071      C1076   1.397       .  A
C1072      C1073   1.412       .  A
C1073      C1074   1.404       .  A
C1073      N1080   1.428       .  S
C1074      C1075   1.411       .  A
C1074      H1079   1.081       .  S
C1075      C1076   1.407       .  A
N1077      O1081   1.262       .  A
N1080      O1084   1.262       .  A
N1080      O1083   1.262       .  A
C1085      H1092   1.082       .  S
C1086      C1087   1.413       .  A
C1087      C1088   1.403       .  A
C1087      N1094   1.426       .  S
C1088      C1089   1.401       .  A
C1088      H1093   1.082       .  S
C1089      C1090   1.409       .  A
C1090      N1731   1.429   1_556  S
N1091      C1730   1.428       .  S
N1091      O1095   1.262       .  A
N1091      O1096   1.262       .  A
N1094      O1098   1.261       .  A
N1094      O1097   1.262       .  A
C1099      C1100   1.413       .  A
C1099      C2384   1.408       .  A
C1099      H2386   1.084       .  S
C1100      C1101   1.419       .  A
C1101      C1102   1.401       .  A
C1101      N1108   1.427       .  S
C1102      C1103   1.397       .  A
C1102      H1107   1.084       .  S
C1103      C2384   1.406       .  A
C1104      C2379   1.408       .  A
C1104      C2383   1.406   1_545  A
C1104      N1105   1.430       .  S
N1105      O1109   1.262       .  A
N1105      O1110   1.262       .  A
H1106      C2379   1.084       .  S
N1108      O1112   1.262       .  A
N1108      O1111   1.262       .  A
C1113      C1114   1.394       .  A
C1113      C1118   1.396       .  A
C1113      H1120   1.084       .  S
C1114      C1115   1.410       .  A
C1115      C1116   1.405       .  A
C1115      N1122   1.429       .  S
C1116      C1117   1.409       .  A
C1116      H1121   1.082       .  S
C1117      C1118   1.423       .  A
C1118      N1119   1.429       .  S
N1119      O1123   1.262       .  A
N1119      O1124   1.262       .  A
N1122      O1126   1.262       .  A
N1122      O1125   1.262       .  A
C1127      C1128   1.409       .  A
C1127      C1132   1.405       .  A
C1127      H1134   1.081       .  S
C1128      C1129   1.417       .  A
C1129      C1130   1.406       .  A
C1129      N1136   1.429       .  S
C1130      C1131   1.407       .  A
C1130      H1135   1.082       .  S
C1131      C1132   1.414       .  A
C1132      N1133   1.428       .  S
N1133      O1137   1.262       .  A
N1133      O1138   1.262       .  A
N1136      O1140   1.262       .  A
N1136      O1139   1.262       .  A
C1141      C1142   1.405       .  A
C1141      C1146   1.401       .  A
C1141      H1148   1.082       .  S
C1142      C1143   1.414       .  A
C1143      C1144   1.403       .  A
C1143      N2430   1.429       .  S
C1144      C1145   1.403       .  A
C1144      H1149   1.082       .  S
C1145      C1146   1.409       .  A
C1146      N1147   1.428       .  S
N1147      O1151   1.262       .  A
N1147      O1152   1.262       .  A
N1150      C2423   1.429       .  S
N1150      O1154   1.262       .  A
N1150      O2433   1.262       .  A
O1153      N2430   1.262       .  A
C1155      C2436   1.410       .  A
C1155      C1160   1.400       .  A
C1155      H1162   1.083       .  S
C1156      C2435   1.410       .  A
C1156      C1157   1.407       .  A
C1157      C1158   1.398       .  A
C1157      N1164   1.428       .  S
C1158      C1159   1.411       .  A
C1158      H1163   1.082       .  S
C1159      C2440   1.409       .  A
C1160      C2439   1.409       .  A
C1160      N1161   1.429       .  S
N1161      O1165   1.262       .  A
N1161      O1166   1.262       .  A
N1164      O1168   1.262   1_565  A
N1164      O1167   1.261       .  A
C1169      C1170   1.403       .  A
C1169      C1174   1.400       .  A
C1169      H1176   1.082       .  S
C1170      C1171   1.417       .  A
C1171      C1172   1.399       .  A
C1171      N1178   1.428       .  S
C1172      C1173   1.394       .  A
C1172      H1177   1.082       .  S
C1173      C1174   1.412       .  A
C1174      N1175   1.431       .  S
N1175      O1179   1.262       .  A
N1175      O1180   1.262       .  A
N1178      O1182   1.262       .  A
N1178      O1181   1.262       .  A
C1183      C1184   1.406       .  A
C1183      C1188   1.396       .  A
C1183      H1190   1.084   1_545  S
C1184      C1185   1.409       .  A
C1185      C1186   1.408       .  A
C1185      N1192   1.430       .  S
C1186      C1187   1.410       .  A
C1186      H1191   1.084       .  S
C1187      C1188   1.405       .  A
C1188      N1189   1.428       .  S
N1189      O1193   1.262       .  A
N1189      O1194   1.262       .  A
N1192      O1196   1.261       .  A
N1192      O1195   1.262       .  A
C1197      C1198   1.404       .  A
C1197      C1202   1.397       .  A
C1197      H1204   1.083       .  S
C1198      C1199   1.413       .  A
C1199      C1200   1.403       .  A
C1199      N1206   1.429       .  S
C1200      C1201   1.404       .  A
C1200      H1205   1.081       .  S
C1201      C1202   1.414       .  A
C1202      N1203   1.429       .  S
N1203      O1207   1.262       .  A
N1203      O1208   1.261       .  A
N1206      O1210   1.261       .  A
N1206      O1209   1.262       .  A
C1211      C1212   1.404       .  A
C1211      C1216   1.402       .  A
C1211      H1218   1.082       .  S
C1212      C1213   1.409       .  A
C1213      C1214   1.399       .  A
C1214      C1215   1.404       .  A
C1214      H1219   1.082       .  S
C1215      C1216   1.410       .  A
C1216      N1217   1.429       .  S
N1217      O1221   1.262       .  A
N1217      O1222   1.262       .  A
N1220      O1224   1.262       .  A
N1220      O1223   1.262   1_556  A
C1225      C1226   1.404       .  A
C1225      C1230   1.399       .  A
C1225      H1232   1.082       .  S
C1226      C1227   1.409       .  A
C1227      C1228   1.394       .  A
C1227      N1234   1.429       .  S
C1228      C1229   1.402       .  A
C1228      H1233   1.083       .  S
C1229      C1230   1.407       .  A
C1230      N1231   1.428       .  S
N1231      O1235   1.262       .  A
N1231      O1236   1.262       .  A
N1234      O1238   1.262       .  A
C1239      C1240   1.400       .  A
C1239      C1244   1.406       .  A
C1239      H1246   1.082       .  S
C1240      C1241   1.409       .  A
C1241      C1242   1.392       .  A
C1241      N1248   1.425       .  S
C1242      C1243   1.397       .  A
C1242      H1247   1.083       .  S
C1243      C1244   1.416       .  A
C1244      N1245   1.428       .  S
N1245      O1249   1.261       .  A
N1245      O1250   1.262       .  A
N1248      O1252   1.261       .  A
N1248      O1251   1.262       .  A
C1253      C1254   1.403       .  A
C1253      C1258   1.404       .  A
C1253      H1260   1.084       .  S
C1254      C1255   1.413       .  A
C1255      C1256   1.397       .  A
C1255      N1262   1.425       .  S
C1256      C1257   1.395       .  A
C1256      H1261   1.084       .  S
C1257      C1258   1.409       .  A
C1258      N1259   1.429       .  S
N1259      O1264   1.262       .  A
N1262      O1266   1.261       .  A
N1262      O1265   1.262       .  A
C1267      C2548   1.406       .  A
C1267      C1272   1.405       .  A
C1267      H1274   1.083   1_565  S
C1268      C2547   1.406       .  A
C1268      C1269   1.410       .  A
C1269      C1270   1.400       .  A
C1269      N1276   1.428       .  S
C1270      C1271   1.407       .  A
C1270      H1275   1.082       .  S
C1271      C2552   1.416       .  A
C1272      C2551   1.416       .  A
C1272      N1273   1.429   1_565  S
N1273      O1277   1.262       .  A
N1273      O1278   1.262       .  A
N1276      O1280   1.262       .  A
N1276      O1279   1.262       .  A
C1281      C1282   1.414       .  A
C1281      C1286   1.420       .  A
C1281      C1346   1.496       .  S
C1282      C1283   1.400       .  A
C1282      H1287   1.084       .  S
C1283      C1284   1.401       .  A
C1283      C2062   1.476   1_554  S
C1284      C1285   1.402       .  A
C1284      H1288   1.085       .  S
C1285      C1286   1.416       .  A
C1286      H1289   1.083       .  S
Zn1290     O1294   1.936       .  S
Zn1290     O1295   2.037       .  S
Zn1290     O1299   2.021       .  S
Zn1290     O1306   2.011       .  S
Zn1291     O1294   1.917       .  S
Zn1291     O1296   1.998       .  S
Zn1291     O1298   2.016       .  S
Zn1291     O1302   1.994       .  S
Zn1292     O1294   1.947       .  S
Zn1292     O1297   2.078   1_655  S
Zn1292     O1300   2.115   1_655  S
Zn1292     O1303   2.072   1_655  S
Zn1293     O1294   1.954       .  S
Zn1293     O1301   2.055   1_565  S
Zn1293     O1304   2.016   1_565  S
Zn1293     O1305   2.044       .  S
O1295      C1307   1.276       .  A
O1296      C1308   1.276       .  A
O1297      C1309   1.282   1_455  A
O1298      C1307   1.270       .  A
O1299      C1309   1.277       .  A
O1300      C1308   1.288   1_455  A
O1301      C1310   1.281       .  A
O1302      C1311   1.272       .  A
O1303      C1310   1.283   1_465  A
O1304      C1311   1.271   1_545  A
O1305      C1312   1.279       .  A
O1306      C1312   1.273       .  A
C1307      C1894   1.478       .  S
C1308      C1319   1.495   1_655  S
C1309      C2039   1.494   1_654  S
C1311      C1880   1.473   1_565  S
C1312      C1908   1.489       .  S
C1313      C1852   1.474       .  S
C1313      N1314   1.366       .  A
C1313      N1958   1.361   1_554  A
N1314      C1315   1.361       .  A
C1315      C1897   1.473       .  S
C1315      N1956   1.350       .  A
N1316      C1955   1.350       .  A
N1316      C1317   1.351       .  A
C1317      C1866   1.475       .  S
C1317      N1318   1.359       .  A
N1318      C1953   1.363       .  A
C1319      C1320   1.415       .  A
C1319      C1324   1.414   1_455  A
C1320      C1321   1.415       .  A
C1320      H1325   1.083       .  S
C1321      C1322   1.403       .  A
C1321      C1345   1.480       .  S
C1322      C1323   1.400       .  A
C1322      H1326   1.085       .  S
C1323      C1324   1.403   1_455  A
C1323      C1383   1.484   1_455  S
C1324      H1327   1.084       .  S
Zn1328     O1332   1.961       .  S
Zn1328     O1333   2.033       .  S
Zn1328     O1337   2.011       .  S
Zn1328     O1344   2.026       .  S
Zn1329     O1332   1.939       .  S
Zn1329     O1334   2.100       .  S
Zn1329     O1336   2.068       .  S
Zn1329     O1340   2.069       .  S
Zn1330     O1332   1.925       .  S
Zn1330     O1335   2.001       .  S
Zn1330     O1338   2.018       .  S
Zn1330     O1341   2.022       .  S
Zn1331     O1332   1.926       .  S
Zn1331     O1339   2.035       .  S
Zn1331     O1342   2.019       .  S
Zn1331     O1343   1.982       .  S
O1333      C1345   1.278       .  A
O1334      C1346   1.286       .  A
O1335      C1347   1.272       .  A
O1336      C1345   1.283       .  A
O1337      C1347   1.271       .  A
O1338      C1346   1.279       .  A
O1339      C1348   1.276       .  A
O1340      C1349   1.281       .  A
O1341      C1348   1.270       .  A
O1342      C1349   1.275       .  A
O1343      C1350   1.272       .  A
O1344      C1350   1.274       .  A
C1347      C1813   1.464       .  S
C1348      C1827   1.479       .  S
C1349      C1361   1.493       .  S
C1350      C1838   1.482       .  S
C1351      C1782   1.485       .  S
C1351      N1352   1.366       .  A
C1353      C1796   1.481       .  S
C1353      N1354   1.347       .  A
N1354      C1355   1.347       .  A
C1355      C1824   1.481       .  S
C1355      N1356   1.359       .  A
C1357      C1358   1.414       .  A
C1357      C1362   1.413       .  A
C1357      C1424   1.497       .  S
C1358      C1359   1.411       .  A
C1358      H1363   1.083       .  S
C1359      C1360   1.404       .  A
C1359      C1387   1.483   1_455  S
C1360      C1361   1.406       .  A
C1360      H1364   1.084       .  S
C1361      C1362   1.412       .  A
C1362      H1365   1.084       .  S
Zn1366     O1370   1.927       .  S
Zn1366     O1371   2.018       .  S
Zn1366     O1375   2.002       .  S
Zn1366     O1382   2.021       .  S
Zn1367     O1370   1.939       .  S
Zn1367     O1372   2.090   1_655  S
Zn1367     O1374   2.055   1_655  S
Zn1367     O1378   2.067   1_655  S
Zn1368     O1370   1.924       .  S
Zn1368     O1373   2.027       .  S
Zn1368     O1376   2.001       .  S
Zn1368     O1379   2.006       .  S
Zn1369     O1370   1.938       .  S
Zn1369     O1377   2.018       .  S
Zn1369     O1380   2.040       .  S
Zn1369     O1381   2.038       .  S
O1371      C1383   1.276       .  A
O1372      C1384   1.284   1_455  A
O1373      C1385   1.272       .  A
O1374      C1383   1.280   1_455  A
O1375      C1385   1.273       .  A
O1376      C1384   1.276       .  A
O1377      C1386   1.272       .  A
O1378      C1387   1.282   1_455  A
O1379      C1386   1.273       .  A
O1380      C1387   1.279       .  A
O1381      C1388   1.279       .  A
O1382      C1388   1.274       .  A
C1384      C1395   1.488   1_655  S
C1385      C1754   1.476       .  S
C1386      C1869   1.465       .  S
C1388      C1768   1.498       .  S
C1389      C1740   1.499       .  S
C1389      N1390   1.364       .  A
C1389      N1394   1.368   1_545  A
N1390      C1391   1.362       .  A
C1391      C1883   1.470       .  S
C1391      N1392   1.350       .  A
N1392      C1393   1.352       .  A
C1393      C1757   1.496   1_545  S
C1393      N1394   1.366   1_545  A
C1395      C1396   1.412       .  A
C1395      C1400   1.410   1_455  A
C1396      C1397   1.412       .  A
C1396      H1401   1.083       .  S
C1397      C1398   1.413       .  A
C1397      C1425   1.489       .  S
C1398      C1399   1.404       .  A
C1398      H1402   1.084       .  S
C1399      C1400   1.403   1_455  A
C1399      C1949   1.491   1_455  S
C1400      H1403   1.084       .  S
Zn1404     O1408   1.905       .  S
Zn1404     O1409   1.992       .  S
Zn1404     O1413   1.982       .  S
Zn1404     O1420   1.963       .  S
Zn1405     O1408   1.928       .  S
Zn1405     O1410   2.011       .  S
Zn1406     O1408   1.945       .  S
Zn1406     O1411   2.057       .  S
Zn1406     O1414   2.065       .  S
Zn1406     O1417   2.062       .  S
Zn1407     O1408   1.954       .  S
Zn1407     O1415   2.071       .  S
Zn1407     O1419   2.058       .  S
O1410      C1422   1.276       .  A
O1411      C1423   1.278       .  A
O1412      C1421   1.277       .  A
O1413      C1423   1.269       .  A
O1414      C1422   1.282       .  A
O1415      C1424   1.285       .  A
O1416      C1425   1.276       .  A
O1417      C1424   1.282       .  A
O1418      C1425   1.283       .  A
O1419      C1426   1.277       .  A
O1420      C1426   1.269       .  A
C1421      C1729   1.474       .  S
C1422      C1923   1.477       .  S
C1423      C1715   1.486       .  S
C1426      C1799   1.483       .  S
C1427      C1698   1.488       .  S
C1427      N1428   1.369       .  A
C1427      N2072   1.364       .  A
N1428      C1429   1.364       .  A
C1429      C1712   1.493       .  S
C1429      N2070   1.354       .  A
N1430      C2069   1.354   1_554  A
N1430      C1431   1.348       .  A
C1431      C1810   1.477       .  S
C1431      N1432   1.359       .  A
N1432      C2067   1.364       .  A
C1433      C1434   1.412       .  A
C1433      C1438   1.415       .  A
C1433      C1500   1.497       .  S
C1434      C1435   1.410       .  A
C1434      H1439   1.084       .  S
C1435      C1436   1.404       .  A
C1435      C2175   1.493   1_554  S
C1436      C1437   1.410       .  A
C1436      H1440   1.084       .  S
C1437      C1438   1.414       .  A
C1437      C1464   1.494       .  S
C1438      H1441   1.083       .  S
Zn1442     O1446   1.917       .  S
Zn1442     O1447   2.023       .  S
Zn1442     O1451   2.077       .  S
Zn1442     O1458   2.035       .  S
Zn1443     O1446   1.935       .  S
Zn1443     O1448   2.059       .  S
Zn1443     O1450   2.060       .  S
Zn1443     O1454   2.041       .  S
Zn1444     O1446   1.896       .  S
Zn1444     O1449   1.960       .  S
Zn1444     O1452   1.966       .  S
Zn1444     O1455   1.942       .  S
Zn1445     O1446   1.928       .  S
Zn1445     O1453   2.055       .  S
Zn1445     O1456   2.057       .  S
Zn1445     O1457   2.068       .  S
O1447      C1459   1.278       .  A
O1448      C1460   1.279       .  A
O1449      C1461   1.267       .  A
O1450      C1459   1.281       .  A
O1451      C1461   1.279       .  A
O1452      C1460   1.264       .  A
O1453      C1462   1.279       .  A
O1454      C1463   1.281       .  A
O1455      C1462   1.263       .  A
O1456      C1463   1.284       .  A
O1457      C1464   1.282       .  A
O1458      C1464   1.279       .  A
C1459      C2151   1.476   1_554  S
C1460      C1684   1.481       .  S
C1461      C1855   1.474       .  S
C1462      C1673   1.483       .  S
C1463      C1471   1.487       .  S
C1465      C1911   1.496       .  S
C1465      N2110   1.366   1_554  A
N1466      C1467   1.365       .  A
C1467      C1687   1.487       .  S
C1467      N2108   1.349       .  A
N1468      C2107   1.350       .  A
N1468      C1469   1.351       .  A
C1469      C1659   1.479       .  S
N1470      C2105   1.364       .  A
C1471      C1472   1.415       .  A
C1471      C1476   1.414       .  A
C1472      C1473   1.408       .  A
C1472      H1477   1.083       .  S
C1473      C1474   1.405       .  A
C1474      C1475   1.402       .  A
C1474      H1478   1.085       .  S
C1475      C1476   1.404       .  A
C1475      C1577   1.481       .  S
C1476      H1479   1.084       .  S
Zn1480     O1484   1.944       .  S
Zn1480     O1485   2.065       .  S
Zn1480     O1489   2.011       .  S
Zn1480     O1496   2.009       .  S
Zn1481     O1484   1.916       .  S
Zn1481     O1486   1.971       .  S
Zn1481     O1488   1.975       .  S
Zn1481     O1492   1.991       .  S
Zn1482     O1484   1.961       .  S
Zn1482     O1487   2.068       .  S
Zn1482     O1490   2.051       .  S
Zn1482     O1493   2.065       .  S
Zn1483     O1484   1.962       .  S
Zn1483     O1491   2.068       .  S
Zn1483     O1494   2.071       .  S
Zn1483     O1495   2.069       .  S
O1485      C1497   1.276       .  A
O1486      C1498   1.269       .  A
O1487      C1499   1.281       .  A
O1488      C1497   1.267       .  A
O1489      C1499   1.275       .  A
O1490      C1498   1.276       .  A
O1491      C1500   1.282       .  A
O1492      C1501   1.271       .  A
O1493      C1500   1.284       .  A
O1494      C1501   1.280       .  A
O1495      C1502   1.282       .  A
O1496      C1502   1.275       .  A
C1497      C1785   1.472       .  S
C1498      C1631   1.485       .  S
C1501      C1642   1.494       .  S
C1502      C1551   1.477       .  S
C1503      C1841   1.483       .  S
C1503      N1504   1.370       .  A
C1503      N1508   1.361       .  A
N1504      C1505   1.363       .  A
C1505      C1645   1.495       .  S
C1505      N1506   1.352       .  A
N1506      C1507   1.348       .  A
C1507      C1614   1.471       .  S
C1507      N1508   1.358       .  A
C1509      C1510   1.417       .  A
C1509      C1514   1.419       .  A
C1509      C1576   1.495       .  S
C1510      C1511   1.408       .  A
C1510      H1515   1.084       .  S
C1511      C1512   1.399       .  A
C1511      C2099   1.479       .  S
C1512      C1513   1.396       .  A
C1512      H1516   1.086       .  S
C1513      C1514   1.410       .  A
C1513      C1536   1.479       .  S
C1514      H1517   1.083       .  S
Zn1518     O1522   1.923       .  S
Zn1518     O1523   2.010       .  S
Zn1518     O1527   1.991       .  S
Zn1518     O1534   2.030       .  S
Zn1519     O1522   1.933       .  S
Zn1519     O1524   2.062       .  S
Zn1519     O1526   2.072       .  S
Zn1519     O1530   2.093       .  S
Zn1520     O1522   1.951       .  S
Zn1520     O1525   2.037       .  S
Zn1520     O1528   2.034       .  S
Zn1520     O1531   2.002       .  S
Zn1521     O1522   1.916       .  S
Zn1521     O1529   1.989       .  S
Zn1521     O1532   1.985       .  S
Zn1521     O1533   2.006       .  S
O1523      C1535   1.274       .  A
O1524      C1536   1.281       .  A
O1525      C1537   1.277       .  A
O1526      C1535   1.282       .  A
O1527      C1537   1.273       .  A
O1528      C1536   1.279       .  A
O1529      C1538   1.271       .  A
O1530      C1539   1.285       .  A
O1531      C1538   1.269       .  A
O1532      C1539   1.274       .  A
O1533      C1540   1.269       .  A
O1534      C1540   1.275       .  A
C1535      C2075   1.493       .  S
C1537      C1701   1.487       .  S
C1538      C1617   1.459       .  S
C1539      C1547   1.488       .  S
C1540      C1603   1.471       .  S
C1541      C1726   1.485       .  S
C1541      N1542   1.369       .  A
C1541      N2186   1.366       .  A
N1542      C1543   1.363       .  A
C1543      C1600   1.479       .  S
C1543      N2184   1.348       .  A
N1544      C2183   1.348       .  A
N1544      C1545   1.346   1_556  A
C1545      C1628   1.482   1_565  S
C1545      N1546   1.357   1_565  A
N1546      C2181   1.366   1_544  A
C1547      C1548   1.415       .  A
C1547      C1552   1.415       .  A
C1548      C1549   1.412       .  A
C1548      H1553   1.083       .  S
C1549      C1550   1.406       .  A
C1549      C1574   1.484       .  S
C1550      C1551   1.398       .  A
C1550      H1554   1.085       .  S
C1551      C1552   1.398       .  A
C1552      H1555   1.084       .  S
Zn1556     O1560   1.879       .  S
Zn1556     O1561   1.970       .  S
Zn1556     O1565   1.948       .  S
Zn1556     O1572   1.966       .  S
Zn1557     O1560   1.918       .  S
Zn1557     O1568   2.004       .  S
Zn1558     O1560   1.943       .  S
Zn1558     O1563   2.066       .  S
Zn1558     O1569   2.076       .  S
Zn1559     O1560   1.943       .  S
Zn1559     O1567   2.051       .  S
Zn1559     O1570   2.084       .  S
Zn1559     O1571   2.065       .  S
O1562      C1574   1.277       .  A
O1563      C1575   1.278       .  A
O1564      C1573   1.277   1_565  A
O1565      C1575   1.267       .  A
O1566      C1574   1.282       .  A
O1567      C1576   1.282       .  A
O1568      C1577   1.275       .  A
O1569      C1576   1.286       .  A
O1570      C1577   1.283       .  A
O1571      C1578   1.280       .  A
O1572      C1578   1.265       .  A
C1573      C1743   1.470   1_545  S
C1575      C1656   1.487       .  S
C1578      C1586   1.480       .  S
C1579      C1771   1.492       .  S
C1579      N1580   1.359       .  A
C1579      N1584   1.366       .  A
N1580      C1581   1.359       .  A
C1581      C1670   1.479       .  S
C1581      N1582   1.355       .  A
N1582      C1583   1.359       .  A
C1583      C1589   1.486       .  S
C1583      N1584   1.368       .  A
C1585      C1586   1.396       .  A
C1585      C1590   1.399       .  A
C1585      H1592   1.084       .  S
C1586      C1587   1.417       .  A
C1587      C1588   1.402       .  A
C1587      N1594   1.430       .  S
C1588      C1589   1.404       .  A
C1588      H1593   1.084       .  S
C1589      C1590   1.415       .  A
C1590      N1591   1.427       .  S
N1591      O1595   1.260       .  A
N1591      O1596   1.262       .  A
N1594      O1598   1.262       .  A
N1594      O1597   1.262       .  A
C1599      C1600   1.409       .  A
C1599      C1604   1.398       .  A
C1599      H1606   1.083       .  S
C1600      C1601   1.410       .  A
C1601      C1602   1.402       .  A
C1601      N2248   1.426       .  S
C1602      C1603   1.404       .  A
C1602      H1607   1.082       .  S
C1603      C1604   1.404       .  A
C1604      N1605   1.429       .  S
N1605      O1609   1.262       .  A
N1605      O1610   1.262       .  A
N1608      C2241   1.426       .  S
N1608      O1612   1.261       .  A
N1608      O1611   1.261       .  A
C1613      C1614   1.403       .  A
C1613      C1618   1.395       .  A
C1613      H1620   1.085       .  S
C1614      C1615   1.417       .  A
C1615      C1616   1.400       .  A
C1615      N1622   1.429       .  S
C1616      C1617   1.395       .  A
C1616      H1621   1.084       .  S
C1617      C1618   1.407       .  A
C1618      N1619   1.432       .  S
N1619      O1623   1.262       .  A
N1619      O1624   1.261       .  A
N1622      O1626   1.261       .  A
N1622      O1625   1.262       .  A
C1627      C1628   1.410       .  A
C1627      C1632   1.400   1_545  A
C1627      H1634   1.078       .  S
C1628      C1629   1.407   1_545  A
C1629      C1630   1.399       .  A
C1629      N1636   1.429       .  S
C1630      C1631   1.410       .  A
C1630      H1635   1.077       .  S
C1631      C1632   1.409       .  A
C1632      N1633   1.429       .  S
N1633      O1637   1.262       .  A
N1633      O1638   1.262   1_565  A
N1636      O1640   1.262   1_565  A
N1636      O1639   1.262       .  A
C1641      C1642   1.413       .  A
C1641      C1646   1.406       .  A
C1641      H1648   1.080       .  S
C1642      C1643   1.409       .  A
C1643      C1644   1.398       .  A
C1643      N1650   1.428       .  S
C1644      C1645   1.410       .  A
C1644      H1649   1.076       .  S
C1645      C1646   1.412       .  A
C1646      N1647   1.429       .  S
N1647      O1651   1.262       .  A
N1647      O1652   1.262       .  A
N1650      O1654   1.262       .  A
N1650      O1653   1.262       .  A
C1655      C1656   1.412       .  A
C1655      C1660   1.396       .  A
C1655      H1662   1.081       .  S
C1657      C1658   1.400       .  A
C1657      N1664   1.428       .  S
C1658      H1663   1.080       .  S
C1659      C1660   1.409       .  A
C1660      N1661   1.430       .  S
N1661      O1665   1.262       .  A
N1661      O1666   1.262       .  A
N1664      O1668   1.262       .  A
N1664      O1667   1.262       .  A
C1669      C1670   1.401       .  A
C1669      C1674   1.395       .  A
C1669      H1676   1.083       .  S
C1670      C1671   1.412       .  A
C1671      C1672   1.400       .  A
C1671      N1678   1.427       .  S
C1672      C1673   1.401       .  A
C1672      H1677   1.082       .  S
C1673      C1674   1.421       .  A
C1674      N1675   1.431       .  S
N1675      O1679   1.262       .  A
N1675      O1680   1.262       .  A
N1678      O1682   1.261       .  A
N1678      O1681   1.262       .  A
C1683      C1684   1.397       .  A
C1683      C1688   1.398       .  A
C1683      H1690   1.082       .  S
C1684      C1685   1.419       .  A
C1685      C1686   1.400       .  A
C1685      N1692   1.429       .  S
C1686      C1687   1.401       .  A
C1686      H1691   1.081       .  S
C1687      C1688   1.419       .  A
C1688      N1689   1.429       .  S
N1689      O1693   1.262       .  A
N1689      O2334   1.262       .  A
N1692      O1696   1.262       .  A
N1692      O1695   1.262       .  A
O1694      N2329   1.262       .  A
C1697      C1698   1.408       .  A
C1697      C1702   1.408       .  A
C1697      H1704   1.084       .  S
C1698      C2339   1.413       .  A
C1699      C2338   1.413       .  A
C1699      C2340   1.397       .  A
C1699      N1706   1.429       .  S
C1700      C2339   1.397       .  A
C1700      C1701   1.403       .  A
C1700      H2345   1.084       .  S
C1701      C1702   1.414       .  A
C1702      N1703   1.430       .  S
N1703      O1707   1.262       .  A
N1703      O1708   1.261       .  A
H1705      C2340   1.084       .  S
N1706      O1710   1.261       .  A
N1706      O1709   1.262       .  A
C1711      C1712   1.410       .  A
C1711      C1716   1.397       .  A
C1711      H2358   1.074       .  S
C1712      C1713   1.411       .  A
C1713      C1714   1.404       .  A
C1713      N1720   1.428       .  S
C1714      C1715   1.411       .  A
C1714      H1719   1.081       .  S
C1715      C1716   1.407       .  A
C1716      N2357   1.429       .  S
N1717      C2356   1.429       .  S
N1717      O1721   1.262       .  A
N1717      O2362   1.262       .  A
H1718      C2351   1.076       .  S
N1720      O1724   1.262       .  A
N1720      O1723   1.262       .  A
O1722      N2357   1.262       .  A
C1725      C2366   1.406   1_545  A
C1725      C2370   1.401       .  A
C1725      H1732   1.082   1_556  S
C1726      C2365   1.405   1_565  A
C1726      C1727   1.413       .  A
C1727      C1728   1.403       .  A
C1727      N1734   1.427       .  S
C1728      C1729   1.402   1_565  A
C1728      H1733   1.082       .  S
C1729      C1730   1.409       .  A
C1730      C2365   1.400       .  A
N1731      O1735   1.262       .  A
N1731      O1736   1.262   1_554  A
N1734      O1738   1.261       .  A
N1734      O1737   1.262       .  A
C1739      C1740   1.412       .  A
C1740      C1741   1.418   1_545  A
C1741      C1742   1.402       .  A
C1741      N1748   1.427       .  S
C1742      C1743   1.398       .  A
C1742      H1747   1.084       .  S
C1744      N1745   1.430       .  S
N1745      O1749   1.262       .  A
N1745      O1750   1.262       .  A
N1748      O1752   1.262       .  A
N1748      O1751   1.262       .  A
C1753      C1754   1.395       .  A
C1753      C1758   1.396       .  A
C1753      H1760   1.084       .  S
C1754      C1755   1.410       .  A
C1755      C1756   1.406       .  A
C1755      N1762   1.429       .  S
C1756      C1757   1.409       .  A
C1756      H1761   1.083       .  S
C1757      C1758   1.422       .  A
C1758      N1759   1.429   1_565  S
N1759      O1763   1.262       .  A
N1759      O1764   1.262       .  A
N1762      O1766   1.262       .  A
N1762      O1765   1.262       .  A
C1767      C1768   1.409       .  A
C1767      C1772   1.404       .  A
C1767      H1774   1.081       .  S
C1768      C1769   1.418       .  A
C1769      C1770   1.404       .  A
C1769      N1776   1.430       .  S
C1770      C1771   1.405       .  A
C1770      H1775   1.082       .  S
C1771      C1772   1.412       .  A
C1772      N1773   1.428       .  S
N1773      O1777   1.262       .  A
N1773      O1778   1.262       .  A
N1776      O1780   1.262       .  A
N1776      O1779   1.262       .  A
C1781      C1782   1.404       .  A
C1781      C1786   1.401       .  A
C1781      H1788   1.082   1_565  S
C1782      C1783   1.415       .  A
C1783      C1784   1.403       .  A
C1784      C1785   1.402       .  A
C1784      H1789   1.082       .  S
C1785      C1786   1.409       .  A
C1786      N1787   1.428   1_565  S
N1787      O1791   1.262       .  A
N1787      O1792   1.262       .  A
N1790      O1794   1.262       .  A
C1795      C1800   1.399       .  A
C1795      H1802   1.083       .  S
C1796      C1797   1.407       .  A
C1797      C1798   1.397       .  A
C1797      N1804   1.428       .  S
C1798      C1799   1.410       .  A
C1798      H1803   1.082       .  S
C1800      N1801   1.429       .  S
N1801      O1805   1.262       .  A
N1801      O1806   1.262       .  A
N1804      O1808   1.262       .  A
N1804      O1807   1.261       .  A
C1809      C1810   1.402       .  A
C1809      C1814   1.399       .  A
C1809      H1816   1.082       .  S
C1810      C1811   1.417       .  A
C1811      C1812   1.400       .  A
C1811      N1818   1.429       .  S
C1812      C1813   1.395       .  A
C1812      H1817   1.082       .  S
C1813      C1814   1.411       .  A
C1814      N1815   1.431       .  S
N1815      O1819   1.262       .  A
N1815      O1820   1.262       .  A
N1818      O1822   1.262       .  A
N1818      O1821   1.262       .  A
C1823      C1824   1.406       .  A
C1823      C1828   1.397       .  A
C1823      H1830   1.084       .  S
C1824      C1825   1.409       .  A
C1825      C1826   1.408       .  A
C1825      N1832   1.430       .  S
C1826      C1827   1.409       .  A
C1826      H1831   1.084       .  S
C1827      C1828   1.405       .  A
C1828      N1829   1.428       .  S
N1829      O1833   1.262       .  A
N1829      O1834   1.262       .  A
N1832      O1836   1.261       .  A
N1832      O1835   1.262       .  A
C1837      C1838   1.405       .  A
C1837      C1842   1.398       .  A
C1837      H1844   1.083       .  S
C1838      C1839   1.413       .  A
C1839      C1840   1.402       .  A
C1839      N1846   1.429       .  S
C1840      C1841   1.404       .  A
C1840      H1845   1.081       .  S
C1841      C1842   1.414       .  A
C1842      N1843   1.429       .  S
N1843      O1847   1.262       .  A
N1843      O1848   1.261       .  A
N1846      O1850   1.261       .  A
N1846      O1849   1.262       .  A
C1851      C1852   1.403       .  A
C1851      C1856   1.403       .  A
C1851      H1858   1.082       .  S
C1852      C1853   1.409       .  A
C1853      C1854   1.398       .  A
C1853      N2500   1.429   1_554  S
C1854      C1855   1.404       .  A
C1854      H1859   1.082       .  S
C1855      C1856   1.411       .  A
C1856      N1857   1.429       .  S
N1857      O1861   1.262       .  A
N1857      O1862   1.262       .  A
N1860      C2493   1.429       .  S
N1860      O1864   1.262       .  A
N1860      O1863   1.262       .  A
C1865      C1866   1.407       .  A
C1865      C1870   1.398       .  A
C1865      H1872   1.082       .  S
C1866      C1867   1.412       .  A
C1867      C1868   1.399       .  A
C1867      N1874   1.429       .  S
C1868      C1869   1.402       .  A
C1868      H1873   1.083       .  S
C1869      C1870   1.404       .  A
C1870      N1871   1.428       .  S
N1871      O1875   1.262       .  A
N1871      O1876   1.262       .  A
N1874      O1878   1.262       .  A
N1874      O2517   1.262       .  A
O1877      N2514   1.262       .  A
C1879      C1880   1.401       .  A
C1879      C1884   1.406       .  A
C1879      H1886   1.082       .  S
C1880      C1881   1.409   1_545  A
C1881      C1882   1.391       .  A
C1881      N1888   1.425       .  S
C1882      C1883   1.397   1_565  A
C1882      H1887   1.083       .  S
C1883      C1884   1.415       .  A
C1884      N1885   1.428       .  S
N1885      O1889   1.261       .  A
N1885      O1890   1.262       .  A
N1888      O1892   1.261       .  A
N1888      O1891   1.262       .  A
C1893      C1894   1.403       .  A
C1893      C1898   1.404       .  A
C1893      H1900   1.084       .  S
C1894      C1895   1.414       .  A
C1895      C1896   1.398       .  A
C1895      N1902   1.425       .  S
C1896      C1897   1.395       .  A
C1896      H1901   1.084       .  S
C1897      C1898   1.410       .  A
C1898      N1899   1.430       .  S
N1899      O2543   1.262       .  A
N1899      O1904   1.262       .  A
N1902      O1906   1.261       .  A
N1902      O1905   1.262       .  A
O1903      N2539   1.261       .  A
C1907      C1912   1.405       .  A
C1907      H1914   1.083       .  S
C1908      C1909   1.412       .  A
C1909      C1910   1.402       .  A
C1909      N1916   1.428   1_554  S
C1910      C1911   1.407       .  A
C1910      H1915   1.082   1_554  S
C1912      N1913   1.429       .  S
N1913      O1917   1.262       .  A
N1913      O1918   1.262       .  A
N1916      O1920   1.262       .  A
N1916      O1919   1.262       .  A
C1921      C1922   1.416       .  A
C1921      C1926   1.419       .  A
C1921      C1986   1.497       .  S
C1922      C1923   1.402       .  A
C1922      H1927   1.084       .  S
C1923      C1924   1.400       .  A
C1924      C1925   1.401       .  A
C1924      H1928   1.085       .  S
C1925      C1926   1.416       .  A
C1926      H1929   1.083       .  S
Zn1930     O1934   1.933       .  S
Zn1930     O1935   2.034       .  S
Zn1930     O1939   2.015       .  S
Zn1930     O1946   2.005       .  S
Zn1931     O1934   1.917       .  S
Zn1931     O1936   1.999       .  S
Zn1931     O1938   2.018       .  S
Zn1931     O1942   1.996       .  S
Zn1932     O1934   1.944       .  S
Zn1932     O1937   2.073   1_655  S
Zn1932     O1940   2.109   1_655  S
Zn1932     O1943   2.070   1_655  S
Zn1933     O1934   1.954       .  S
Zn1933     O1941   2.051   1_565  S
Zn1933     O1944   2.014   1_565  S
Zn1933     O1945   2.038       .  S
O1935      C1947   1.275       .  A
O1936      C1948   1.277       .  A
O1937      C1949   1.282   1_455  A
O1938      C1947   1.270       .  A
O1939      C1949   1.276       .  A
O1940      C1948   1.287   1_455  A
O1941      C1950   1.280   1_655  A
O1942      C1951   1.272       .  A
O1943      C1950   1.283   1_565  A
O1944      C1951   1.271   1_545  A
O1945      C1952   1.278       .  A
O1946      C1952   1.273       .  A
C1947      C2534   1.476       .  S
C1948      C1959   1.495   1_655  S
C1951      C2520   1.473   1_565  S
C1952      C2548   1.485       .  S
C1953      C2492   1.475       .  S
C1953      N1954   1.364       .  A
N1954      C1955   1.358       .  A
C1955      C2537   1.473       .  S
N1956      C1957   1.348   1_554  A
C1957      C2506   1.465       .  S
C1957      N1958   1.356       .  A
C1959      C1960   1.416       .  A
C1959      C1964   1.413   1_455  A
C1960      C1961   1.416       .  A
C1960      H1965   1.083       .  S
C1961      C1962   1.403       .  A
C1961      C1985   1.480       .  S
C1962      C1963   1.399       .  A
C1962      H1966   1.085       .  S
C1963      C1964   1.401   1_455  A
C1963      C2023   1.481   1_455  S
C1964      H1967   1.084       .  S
Zn1968     O1972   1.965       .  S
Zn1968     O1973   2.037       .  S
Zn1968     O1977   2.014       .  S
Zn1968     O1984   2.029       .  S
Zn1969     O1972   1.940       .  S
Zn1969     O1974   2.104       .  S
Zn1969     O1976   2.067       .  S
Zn1969     O1980   2.076       .  S
Zn1970     O1972   1.926       .  S
Zn1970     O1975   1.997       .  S
Zn1970     O1978   2.019       .  S
Zn1970     O1981   2.020       .  S
Zn1971     O1972   1.925       .  S
Zn1971     O1979   2.035       .  S
Zn1971     O1982   2.016       .  S
Zn1971     O1983   1.978       .  S
O1973      C1985   1.278       .  A
O1974      C1986   1.287       .  A
O1975      C1987   1.272       .  A
O1976      C1985   1.283       .  A
O1977      C1987   1.271       .  A
O1978      C1986   1.279       .  A
O1979      C1988   1.276       .  A
O1980      C1989   1.282       .  A
O1981      C1988   1.270       .  A
O1982      C1989   1.274       .  A
O1983      C1990   1.272       .  A
O1984      C1990   1.274       .  A
C1987      C2453   1.464       .  S
C1988      C2467   1.478       .  S
C1989      C2001   1.494       .  S
C1990      C2478   1.482       .  S
C1991      C2422   1.484       .  S
C1991      N1992   1.367       .  A
C1993      C2436   1.481       .  S
C1993      N1994   1.347       .  A
N1994      C1995   1.346       .  A
C1995      C2464   1.480       .  S
C1995      N1996   1.359       .  A
C1997      C1998   1.415       .  A
C1997      C2002   1.413       .  A
C1997      C2064   1.499       .  S
C1998      C1999   1.411       .  A
C1998      H2003   1.083       .  S
C1999      C2000   1.405       .  A
C1999      C2027   1.483   1_455  S
C2000      C2001   1.406       .  A
C2000      H2004   1.084       .  S
C2001      C2002   1.413       .  A
C2002      H2005   1.084       .  S
Zn2006     O2010   1.930       .  S
Zn2006     O2011   2.017       .  S
Zn2006     O2015   2.003       .  S
Zn2006     O2022   2.029       .  S
Zn2007     O2010   1.938       .  S
Zn2007     O2012   2.090   1_655  S
Zn2007     O2014   2.053   1_655  S
Zn2007     O2018   2.067   1_655  S
Zn2008     O2010   1.919       .  S
Zn2008     O2013   2.022       .  S
Zn2008     O2016   1.995       .  S
Zn2008     O2019   1.994       .  S
Zn2009     O2010   1.939       .  S
Zn2009     O2017   2.017       .  S
Zn2009     O2020   2.041       .  S
Zn2009     O2021   2.040       .  S
O2011      C2023   1.277       .  A
O2012      C2024   1.284   1_455  A
O2013      C2025   1.271       .  A
O2014      C2023   1.280   1_455  A
O2015      C2025   1.273       .  A
O2016      C2024   1.275       .  A
O2017      C2026   1.271       .  A
O2018      C2027   1.282   1_455  A
O2019      C2026   1.273       .  A
O2020      C2027   1.279       .  A
O2021      C2028   1.279       .  A
O2022      C2028   1.275       .  A
C2024      C2035   1.486   1_655  S
C2025      C2394   1.474       .  S
C2026      C2509   1.468       .  S
C2028      C2408   1.500       .  S
C2029      C2380   1.500       .  S
C2029      N2030   1.365       .  A
C2029      N2034   1.368   1_545  A
N2030      C2031   1.363       .  A
C2031      C2523   1.471       .  S
C2031      N2032   1.350       .  A
N2032      C2033   1.351       .  A
C2033      C2397   1.496   1_545  S
C2033      N2034   1.365   1_545  A
C2035      C2036   1.409       .  A
C2035      C2040   1.410   1_455  A
C2036      C2037   1.410       .  A
C2036      H2041   1.084       .  S
C2037      C2038   1.415       .  A
C2037      C2065   1.488       .  S
C2038      C2039   1.406       .  A
C2038      H2042   1.084       .  S
C2039      C2040   1.404   1_455  A
C2040      H2043   1.084       .  S
Zn2044     O2048   1.904       .  S
Zn2044     O2049   1.997       .  S
Zn2044     O2053   1.981       .  S
Zn2044     O2060   1.968       .  S
Zn2045     O2048   1.927       .  S
Zn2045     O2050   2.007       .  S
Zn2046     O2048   1.944       .  S
Zn2046     O2051   2.055       .  S
Zn2046     O2054   2.065       .  S
Zn2046     O2057   2.062       .  S
Zn2047     O2048   1.950       .  S
Zn2047     O2055   2.078       .  S
Zn2047     O2059   2.061       .  S
O2050      C2062   1.275       .  A
O2051      C2063   1.278       .  A
O2052      C2061   1.277       .  A
O2053      C2063   1.269       .  A
O2054      C2062   1.282       .  A
O2055      C2064   1.285       .  A
O2056      C2065   1.275       .  A
O2057      C2064   1.282       .  A
O2058      C2065   1.284       .  A
O2059      C2066   1.278       .  A
O2060      C2066   1.270       .  A
C2061      C2369   1.475       .  S
C2063      C2355   1.485       .  S
C2066      C2439   1.485       .  S
C2067      C2338   1.488       .  S
C2067      N2068   1.369   1_554  A
N2068      C2069   1.364       .  A
C2069      C2352   1.493       .  S
N2070      C2071   1.349       .  A
C2071      C2450   1.479       .  S
C2071      N2072   1.359       .  A
C2073      C2074   1.412       .  A
C2073      C2078   1.415       .  A
C2073      C2140   1.496       .  S
C2074      C2075   1.410       .  A
C2074      H2079   1.084       .  S
C2075      C2076   1.404       .  A
C2076      C2077   1.409       .  A
C2076      H2080   1.084       .  S
C2077      C2078   1.414       .  A
C2077      C2104   1.493       .  S
C2078      H2081   1.083       .  S
Zn2082     O2086   1.920       .  S
Zn2082     O2087   2.021       .  S
Zn2082     O2091   2.075       .  S
Zn2082     O2098   2.035       .  S
Zn2083     O2086   1.941       .  S
Zn2083     O2088   2.057       .  S
Zn2083     O2090   2.067       .  S
Zn2083     O2094   2.044       .  S
Zn2084     O2086   1.901       .  S
Zn2084     O2089   1.959       .  S
Zn2084     O2092   1.967       .  S
Zn2084     O2095   1.947       .  S
Zn2085     O2086   1.932       .  S
Zn2085     O2093   2.057       .  S
Zn2085     O2096   2.060       .  S
Zn2085     O2097   2.066       .  S
O2087      C2099   1.277       .  A
O2088      C2100   1.280       .  A
O2089      C2101   1.267       .  A
O2090      C2099   1.281       .  A
O2091      C2101   1.279       .  A
O2092      C2100   1.264       .  A
O2093      C2102   1.279       .  A
O2094      C2103   1.281       .  A
O2095      C2102   1.263       .  A
O2096      C2103   1.284       .  A
O2097      C2104   1.281       .  A
O2098      C2104   1.279       .  A
C2100      C2324   1.481       .  S
C2101      C2495   1.473       .  S
C2102      C2313   1.485       .  S
C2103      C2111   1.488       .  S
C2105      C2551   1.492       .  S
N2106      C2107   1.366       .  A
C2107      C2327   1.487       .  S
N2108      C2109   1.352   1_554  A
C2109      C2299   1.482       .  S
C2111      C2112   1.416       .  A
C2111      C2116   1.415       .  A
C2112      C2113   1.409       .  A
C2112      H2117   1.083       .  S
C2113      C2114   1.404       .  A
C2114      C2115   1.402       .  A
C2114      H2118   1.085       .  S
C2115      C2116   1.404       .  A
C2115      C2217   1.481       .  S
C2116      H2119   1.084       .  S
Zn2120     O2124   1.942       .  S
Zn2120     O2125   2.069       .  S
Zn2120     O2129   2.017       .  S
Zn2120     O2136   2.009       .  S
Zn2121     O2124   1.915       .  S
Zn2121     O2126   1.972       .  S
Zn2121     O2128   1.975       .  S
Zn2121     O2132   1.993       .  S
Zn2122     O2124   1.959       .  S
Zn2122     O2127   2.068       .  S
Zn2122     O2130   2.045       .  S
Zn2122     O2133   2.062       .  S
Zn2123     O2124   1.959       .  S
Zn2123     O2131   2.068       .  S
Zn2123     O2134   2.070       .  S
Zn2123     O2135   2.065       .  S
O2125      C2137   1.277       .  A
O2126      C2138   1.270       .  A
O2127      C2139   1.280       .  A
O2128      C2137   1.267       .  A
O2129      C2139   1.276       .  A
O2130      C2138   1.276       .  A
O2131      C2140   1.282       .  A
O2132      C2141   1.271       .  A
O2133      C2140   1.283       .  A
O2134      C2141   1.280       .  A
O2135      C2142   1.281       .  A
O2136      C2142   1.276       .  A
C2137      C2425   1.474       .  S
C2138      C2271   1.483       .  S
C2141      C2282   1.494       .  S
C2142      C2191   1.476       .  S
C2143      C2481   1.483       .  S
C2143      N2144   1.371       .  A
C2143      N2148   1.360       .  A
N2144      C2145   1.364       .  A
C2145      C2285   1.497       .  S
C2145      N2146   1.353       .  A
N2146      C2147   1.347       .  A
C2147      C2254   1.472       .  S
C2147      N2148   1.357       .  A
C2149      C2150   1.416       .  A
C2149      C2154   1.420       .  A
C2149      C2216   1.496       .  S
C2150      C2151   1.407       .  A
C2150      H2155   1.084       .  S
C2151      C2152   1.398       .  A
C2152      C2153   1.396       .  A
C2152      H2156   1.086       .  S
C2153      C2154   1.412       .  A
C2153      C2176   1.480       .  S
C2154      H2157   1.083       .  S
Zn2158     O2162   1.924       .  S
Zn2158     O2163   2.012       .  S
Zn2158     O2167   1.988       .  S
Zn2158     O2174   2.032       .  S
Zn2159     O2162   1.932       .  S
Zn2159     O2164   2.063       .  S
Zn2159     O2166   2.073       .  S
Zn2159     O2170   2.091       .  S
Zn2160     O2162   1.952       .  S
Zn2160     O2165   2.039       .  S
Zn2160     O2168   2.037       .  S
Zn2160     O2171   2.001       .  S
Zn2161     O2162   1.916       .  S
Zn2161     O2169   1.988       .  S
Zn2161     O2172   1.985       .  S
Zn2161     O2173   2.009       .  S
O2163      C2175   1.274       .  A
O2164      C2176   1.281       .  A
O2165      C2177   1.277       .  A
O2166      C2175   1.282       .  A
O2167      C2177   1.273       .  A
O2168      C2176   1.279       .  A
O2169      C2178   1.271       .  A
O2170      C2179   1.285       .  A
O2171      C2178   1.269       .  A
O2172      C2179   1.274       .  A
O2173      C2180   1.269       .  A
O2174      C2180   1.275       .  A
C2177      C2341   1.488       .  S
C2178      C2257   1.458       .  S
C2179      C2187   1.487       .  S
C2180      C2243   1.473       .  S
C2181      C2366   1.486       .  S
C2181      N2182   1.370       .  A
N2182      C2183   1.363       .  A
C2183      C2240   1.480       .  S
N2184      C2185   1.346       .  A
C2185      C2268   1.482   1_565  S
C2185      N2186   1.357       .  A
C2187      C2188   1.414       .  A
C2187      C2192   1.415       .  A
C2188      C2189   1.411       .  A
C2188      H2193   1.083       .  S
C2189      C2190   1.405       .  A
C2189      C2214   1.482       .  S
C2190      C2191   1.397       .  A
C2190      H2194   1.085       .  S
C2191      C2192   1.397       .  A
C2192      H2195   1.084       .  S
Zn2196     O2200   1.879       .  S
Zn2196     O2201   1.972       .  S
Zn2196     O2205   1.956       .  S
Zn2196     O2212   1.965       .  S
Zn2197     O2200   1.916       .  S
Zn2197     O2208   2.001       .  S
Zn2198     O2200   1.940       .  S
Zn2198     O2203   2.068       .  S
Zn2198     O2209   2.081       .  S
Zn2199     O2200   1.942       .  S
Zn2199     O2207   2.048       .  S
Zn2199     O2210   2.085       .  S
Zn2199     O2211   2.057       .  S
O2202      C2214   1.278       .  A
O2203      C2215   1.279       .  A
O2204      C2213   1.277   1_565  A
O2205      C2215   1.267       .  A
O2206      C2214   1.282       .  A
O2207      C2216   1.281       .  A
O2208      C2217   1.274       .  A
O2209      C2216   1.287       .  A
O2210      C2217   1.283       .  A
O2211      C2218   1.280       .  A
O2212      C2218   1.266       .  A
C2213      C2383   1.470   1_545  S
C2215      C2296   1.489       .  S
C2218      C2226   1.478       .  S
C2219      C2411   1.498       .  S
C2219      N2220   1.361       .  A
C2219      N2224   1.365       .  A
N2220      C2221   1.360       .  A
C2221      C2310   1.482       .  S
C2221      N2222   1.355       .  A
N2222      C2223   1.359       .  A
C2223      C2229   1.486       .  S
C2223      N2224   1.367       .  A
C2225      C2226   1.396       .  A
C2225      C2230   1.398       .  A
C2225      H2232   1.084       .  S
C2226      C2227   1.416       .  A
C2227      C2228   1.402       .  A
C2227      N2234   1.430       .  S
C2228      C2229   1.404       .  A
C2228      H2233   1.084       .  S
C2229      C2230   1.415       .  A
C2230      N2231   1.427       .  S
N2231      O2235   1.260       .  A
N2231      O2236   1.262       .  A
N2234      O2238   1.262       .  A
N2234      O2237   1.262       .  A
C2239      C2240   1.409       .  A
C2239      C2244   1.398       .  A
C2239      H2246   1.083       .  S
C2240      C2241   1.410       .  A
C2241      C2242   1.403       .  A
C2242      C2243   1.404       .  A
C2242      H2247   1.082       .  S
C2243      C2244   1.404       .  A
C2244      N2245   1.429       .  S
N2245      O2249   1.262       .  A
N2245      O2250   1.262       .  A
N2248      O2252   1.261       .  A
N2248      O2251   1.262       .  A
C2253      C2254   1.404       .  A
C2253      C2258   1.394       .  A
C2253      H2260   1.085       .  S
C2254      C2255   1.417       .  A
C2255      C2256   1.400       .  A
C2255      N2262   1.429       .  S
C2256      C2257   1.395       .  A
C2256      H2261   1.084       .  S
C2257      C2258   1.407       .  A
C2258      N2259   1.432       .  S
N2259      O2263   1.262       .  A
N2259      O2264   1.261       .  A
N2262      O2266   1.261       .  A
N2262      O2265   1.262       .  A
C2267      C2268   1.410       .  A
C2267      C2272   1.399   1_545  A
C2267      H2274   1.078       .  S
C2268      C2269   1.407   1_545  A
C2269      C2270   1.399       .  A
C2269      N2276   1.429       .  S
C2270      C2271   1.410       .  A
C2270      H2275   1.078       .  S
C2271      C2272   1.409       .  A
C2272      N2273   1.429       .  S
N2273      O2277   1.262       .  A
N2273      O2278   1.262   1_565  A
N2276      O2280   1.262   1_565  A
N2276      O2279   1.262       .  A
C2281      C2282   1.414       .  A
C2281      C2286   1.407       .  A
C2281      H2288   1.079       .  S
C2282      C2283   1.409       .  A
C2283      C2284   1.398       .  A
C2283      N2290   1.429       .  S
C2284      C2285   1.410       .  A
C2284      H2289   1.074       .  S
C2285      C2286   1.412       .  A
C2286      N2287   1.429       .  S
N2287      O2291   1.262       .  A
N2287      O2292   1.262       .  A
N2290      O2294   1.262       .  A
N2290      O2293   1.262       .  A
C2295      C2296   1.412       .  A
C2295      C2300   1.398       .  A
C2295      H2302   1.081       .  S
C2297      C2298   1.400       .  A
C2297      N2304   1.429       .  S
C2298      H2303   1.081       .  S
C2299      C2300   1.409       .  A
C2300      N2301   1.429       .  S
N2301      O2305   1.262       .  A
N2301      O2306   1.262       .  A
N2304      O2308   1.262       .  A
N2304      O2307   1.262       .  A
C2309      C2310   1.402       .  A
C2309      C2314   1.396       .  A
C2309      H2316   1.082       .  S
C2310      C2311   1.413       .  A
C2311      C2312   1.401       .  A
C2311      N2318   1.427       .  S
C2312      C2313   1.401       .  A
C2312      H2317   1.082       .  S
C2313      C2314   1.421       .  A
C2314      N2315   1.431       .  S
N2315      O2319   1.262       .  A
N2315      O2320   1.262       .  A
N2318      O2322   1.261       .  A
N2318      O2321   1.262       .  A
C2323      C2324   1.397       .  A
C2323      C2328   1.398       .  A
C2323      H2330   1.082       .  S
C2324      C2325   1.419       .  A
C2325      C2326   1.400       .  A
C2325      N2332   1.429       .  S
C2326      C2327   1.401       .  A
C2326      H2331   1.081       .  S
C2327      C2328   1.420       .  A
C2328      N2329   1.429       .  S
N2329      O2333   1.262       .  A
N2332      O2336   1.262       .  A
N2332      O2335   1.262       .  A
C2337      C2338   1.408   1_556  A
C2337      C2342   1.408       .  A
C2337      H2344   1.084       .  S
C2339      N2346   1.429       .  S
C2340      C2341   1.404   1_554  A
C2341      C2342   1.414       .  A
C2342      N2343   1.430       .  S
N2343      O2347   1.262       .  A
N2343      O2348   1.261       .  A
N2346      O2350   1.261       .  A
N2346      O2349   1.262       .  A
C2351      C2352   1.410       .  A
C2351      C2356   1.397       .  A
C2352      C2353   1.412       .  A
C2353      C2354   1.404       .  A
C2353      N2360   1.428       .  S
C2354      C2355   1.411       .  A
C2354      H2359   1.081       .  S
C2355      C2356   1.407       .  A
N2357      O2361   1.262       .  A
N2360      O2364   1.262       .  A
N2360      O2363   1.262       .  A
C2365      H2372   1.082       .  S
C2366      C2367   1.413       .  A
C2367      C2368   1.403       .  A
C2367      N2374   1.426       .  S
C2368      C2369   1.401   1_565  A
C2368      H2373   1.082       .  S
C2369      C2370   1.409       .  A
N2371      O2375   1.262       .  A
N2371      O2376   1.262       .  A
N2374      O2378   1.261       .  A
N2374      O2377   1.262       .  A
C2379      C2380   1.413       .  A
C2380      C2381   1.419   1_545  A
C2381      C2382   1.401       .  A
C2381      N2388   1.427       .  S
C2382      C2383   1.397       .  A
C2382      H2387   1.084       .  S
C2384      N2385   1.430       .  S
N2385      O2389   1.262       .  A
N2385      O2390   1.262       .  A
N2388      O2392   1.262       .  A
N2388      O2391   1.262       .  A
C2393      C2394   1.394       .  A
C2393      C2398   1.396       .  A
C2393      H2400   1.084       .  S
C2394      C2395   1.410       .  A
C2395      C2396   1.405       .  A
C2395      N2402   1.429       .  S
C2396      C2397   1.409       .  A
C2396      H2401   1.082       .  S
C2397      C2398   1.423       .  A
C2398      N2399   1.429   1_565  S
N2399      O2403   1.262       .  A
N2399      O2404   1.262       .  A
N2402      O2406   1.262       .  A
N2402      O2405   1.262       .  A
C2407      C2408   1.409       .  A
C2407      C2412   1.405       .  A
C2407      H2414   1.081       .  S
C2408      C2409   1.418       .  A
C2409      C2410   1.406       .  A
C2409      N2416   1.429       .  S
C2410      C2411   1.407       .  A
C2410      H2415   1.082       .  S
C2411      C2412   1.414       .  A
C2412      N2413   1.428       .  S
N2413      O2417   1.262       .  A
N2413      O2418   1.262       .  A
N2416      O2420   1.262       .  A
N2416      O2419   1.262       .  A
C2421      C2422   1.405       .  A
C2421      C2426   1.401       .  A
C2421      H2428   1.082   1_565  S
C2422      C2423   1.414       .  A
C2423      C2424   1.403       .  A
C2424      C2425   1.403       .  A
C2424      H2429   1.082       .  S
C2425      C2426   1.409       .  A
C2426      N2427   1.428   1_565  S
N2427      O2431   1.262       .  A
N2427      O2432   1.262       .  A
N2430      O2434   1.262       .  A
C2435      C2440   1.400       .  A
C2435      H2442   1.083       .  S
C2436      C2437   1.407       .  A
C2437      C2438   1.398       .  A
C2437      N2444   1.428       .  S
C2438      C2439   1.411       .  A
C2438      H2443   1.082       .  S
C2440      N2441   1.429       .  S
N2441      O2445   1.262       .  A
N2441      O2446   1.262       .  A
N2444      O2448   1.262       .  A
N2444      O2447   1.261       .  A
C2449      C2450   1.403       .  A
C2449      C2454   1.400       .  A
C2449      H2456   1.082       .  S
C2450      C2451   1.417       .  A
C2451      C2452   1.399       .  A
C2451      N2458   1.428       .  S
C2452      C2453   1.394       .  A
C2452      H2457   1.082       .  S
C2453      C2454   1.412       .  A
C2454      N2455   1.431       .  S
N2455      O2459   1.262       .  A
N2455      O2460   1.262       .  A
N2458      O2462   1.262       .  A
N2458      O2461   1.262       .  A
C2463      C2464   1.406       .  A
C2463      C2468   1.396       .  A
C2463      H2470   1.084       .  S
C2464      C2465   1.409       .  A
C2465      C2466   1.408       .  A
C2465      N2472   1.430       .  S
C2466      C2467   1.410       .  A
C2466      H2471   1.084       .  S
C2467      C2468   1.405       .  A
C2468      N2469   1.428       .  S
N2469      O2473   1.262       .  A
N2469      O2474   1.262       .  A
N2472      O2476   1.261       .  A
N2472      O2475   1.262       .  A
C2477      C2478   1.404       .  A
C2477      C2482   1.397       .  A
C2477      H2484   1.083       .  S
C2478      C2479   1.413       .  A
C2479      C2480   1.403       .  A
C2479      N2486   1.429       .  S
C2480      C2481   1.404       .  A
C2480      H2485   1.081       .  S
C2481      C2482   1.414       .  A
C2482      N2483   1.429       .  S
N2483      O2487   1.262       .  A
N2483      O2488   1.261       .  A
N2486      O2490   1.261       .  A
N2486      O2489   1.262       .  A
C2491      C2492   1.404       .  A
C2491      C2496   1.402       .  A
C2491      H2498   1.082       .  S
C2492      C2493   1.409       .  A
C2493      C2494   1.399       .  A
C2494      C2495   1.404       .  A
C2494      H2499   1.082       .  S
C2495      C2496   1.410       .  A
C2496      N2497   1.429       .  S
N2497      O2501   1.262       .  A
N2497      O2502   1.262       .  A
N2500      O2504   1.262       .  A
N2500      O2503   1.262   1_556  A
C2505      C2506   1.404       .  A
C2505      C2510   1.399       .  A
C2505      H2512   1.082       .  S
C2506      C2507   1.409       .  A
C2507      C2508   1.394       .  A
C2507      N2514   1.429       .  S
C2508      C2509   1.402       .  A
C2508      H2513   1.083       .  S
C2509      C2510   1.407       .  A
C2510      N2511   1.428       .  S
N2511      O2515   1.262       .  A
N2511      O2516   1.262       .  A
N2514      O2518   1.262       .  A
C2519      C2520   1.400       .  A
C2519      C2524   1.406       .  A
C2519      H2526   1.082       .  S
C2520      C2521   1.410   1_545  A
C2521      C2522   1.392       .  A
C2521      N2528   1.425       .  S
C2522      C2523   1.397   1_565  A
C2522      H2527   1.083       .  S
C2523      C2524   1.416       .  A
C2524      N2525   1.428       .  S
N2525      O2529   1.261       .  A
N2525      O2530   1.262       .  A
N2528      O2532   1.261       .  A
N2528      O2531   1.262       .  A
C2533      C2534   1.403       .  A
C2533      C2538   1.404       .  A
C2533      H2540   1.084       .  S
C2534      C2535   1.413       .  A
C2535      C2536   1.397       .  A
C2535      N2542   1.425       .  S
C2536      C2537   1.395       .  A
C2536      H2541   1.084       .  S
C2537      C2538   1.409       .  A
C2538      N2539   1.429       .  S
N2539      O2544   1.262       .  A
N2542      O2546   1.261       .  A
N2542      O2545   1.262       .  A
C2547      C2552   1.405       .  A
C2547      H2554   1.083       .  S
C2548      C2549   1.410       .  A
C2549      C2550   1.400       .  A
C2549      N2556   1.428       .  S
C2550      C2551   1.407       .  A
C2550      H2555   1.082       .  S
C2552      N2553   1.429       .  S
N2553      O2557   1.262       .  A
N2553      O2558   1.262       .  A
N2556      O2560   1.262       .  A
N2556      O2559   1.262       .  A
