geometry optimzed in LAMMPS
_audit_creation_date              2020-11-30 
_audit_creation_method            'lammps2cif' 
_symmetry_space_group_name_H-M    'P1' 
_symmetry_Int_Tables_number       1 
_symmetry_cell_setting            triclinic 
loop_ 
_symmetry_equiv_pos_as_xyz 
  x,y,z 
_cell_length_a                    47.47332537 
_cell_length_b                    45.51523031479324 
_cell_length_c                    34.26125102986009 
_cell_angle_alpha                 89.98084014150467 
_cell_angle_beta                  109.93787296047768 
_cell_angle_gamma                 90.02858586206699 
loop_ 
_atom_site_label 
_atom_site_type_symbol 
_atom_site_fract_x 
_atom_site_fract_y 
_atom_site_fract_z 
_atom_site_charge 
N1          N  0.61331862  0.14651645  0.50246809    -0.24700
N2          N  0.60701391  0.14895508  0.53706529    -0.32500
C3          C  0.57709102  0.15025138  0.52740554     0.03700
C4          C  0.56416303  0.14848582  0.48478559     0.09700
C5          C  0.58760810  0.14618210  0.46983713    -0.03400
H6          H  0.56570283  0.15282480  0.54967766     0.10400
H7          H  0.58617584  0.14490432  0.43768567     0.11600
Cu8        Cu  0.63952996  0.15178577  0.59543471     0.44200
Cu9        Cu  0.65656728  0.14511821  0.50112452     0.42000
Cu10       Cu  0.71722122  0.15205228  0.59899528     0.43900
N11         N  0.67613466  0.15645481  0.64940671    -0.32100
N12         N  0.70432487  0.15665436  0.65071732    -0.26300
C13         C  0.72233977  0.16165023  0.68999783    -0.02400
C14         C  0.70457377  0.16463722  0.71428450     0.09800
C15         C  0.67547270  0.16130461  0.68780205     0.03600
H16         H  0.74645966  0.16375850  0.69982916     0.11200
H17         H  0.65526739  0.16312362  0.69553559     0.10300
N18         N  0.72362913  0.14835964  0.54228519    -0.33500
N19         N  0.70134968  0.14578265  0.50652193    -0.25700
C20         C  0.71264081  0.14455429  0.47551084    -0.00900
C21         C  0.74340116  0.14643865  0.49269427     0.07700
C22         C  0.74974593  0.14884675  0.53498399     0.05800
H23         H  0.69938662  0.14280962  0.44290102     0.10900
H24         H  0.77159951  0.15115135  0.55862613     0.09700
C25         C  0.73141796  0.19026348  0.83545081     0.05700
C26         C  0.74077767  0.17022939  0.86835197    -0.10400
C27         C  0.74988798  0.18027069  0.90945135     0.03200
C28         C  0.74966583  0.21051641  0.91763007    -0.08900
C29         C  0.74028196  0.23058657  0.88458370     0.05700
C30         C  0.73116528  0.22036032  0.84359025    -0.08400
H31         H  0.74094827  0.14689682  0.86200114     0.11300
H32         H  0.75672233  0.21834812  0.94940711     0.08900
H33         H  0.72391903  0.23583330  0.81802136     0.07900
N34         N  0.58905708  0.41435315  0.50616019    -0.24700
N35         N  0.58413240  0.41323134  0.54188510    -0.32500
C36         C  0.55467083  0.41720695  0.53461428     0.03700
C37         C  0.54067881  0.42102629  0.49241442     0.09700
C38         C  0.56297155  0.41907824  0.47525996    -0.03400
H39         H  0.54423595  0.41688605  0.55817217     0.10400
H40         H  0.56043014  0.42055069  0.44271645     0.11600
Cu41       Cu  0.61768893  0.40536651  0.59846030     0.44200
Cu42       Cu  0.63067112  0.40872841  0.50033825     0.42000
Cu43       Cu  0.69285460  0.39589327  0.59407587     0.43900
N44         N  0.65527444  0.39591378  0.64973065    -0.32100
N45         N  0.68252407  0.39251825  0.64802495    -0.26300
C46         C  0.70151272  0.38560924  0.68606615    -0.02400
C47         C  0.68542291  0.38468559  0.71278775     0.09800
C48         C  0.65623789  0.39124505  0.68896663     0.03600
H49         H  0.72513767  0.38107625  0.69346917     0.11200
H50         H  0.63703753  0.39204674  0.69913563     0.10300
N51         N  0.69710451  0.39850310  0.53593279    -0.33500
N52         N  0.67417113  0.40312000  0.50144289    -0.25700
C53         C  0.68404827  0.40360950  0.46901923    -0.00900
C54         C  0.71459246  0.39905486  0.48401249     0.07700
C55         C  0.72224376  0.39590104  0.52642198     0.05800
H56         H  0.67004304  0.40709420  0.43705576     0.10900
H57         H  0.74437281  0.39205802  0.54872321     0.09700
C58         C  0.71837534  0.35943250  0.83427287     0.05700
C59         C  0.72688838  0.37976375  0.86687486    -0.10400
C60         C  0.73911960  0.37001887  0.90804840     0.03200
C61         C  0.74277058  0.33978218  0.91661684    -0.08900
C62         C  0.73420087  0.31941537  0.88391311     0.05700
C63         C  0.72203162  0.32933504  0.84284090    -0.08400
H64         H  0.72418115  0.40309927  0.86021920     0.11300
H65         H  0.75232831  0.33218791  0.94843205     0.08900
H66         H  0.71554077  0.31362893  0.81752605     0.08700
N67         N  0.90236769  0.39707777  0.40908597    -0.24700
N68         N  0.90862671  0.39946116  0.37444432    -0.32500
C69         C  0.93854340  0.40080305  0.38403813     0.03700
C70         C  0.95151429  0.39912517  0.42666044     0.09700
C71         C  0.92810191  0.39682409  0.44167813    -0.03400
H72         H  0.94989812  0.40334817  0.36171679     0.10400
H73         H  0.92957144  0.39560639  0.47384837     0.11600
Cu74       Cu  0.87606359  0.40215609  0.31609705     0.44200
Cu75       Cu  0.85915131  0.39565421  0.41056278     0.42000
Cu76       Cu  0.79842003  0.40229351  0.31273418     0.43900
N77         N  0.83940217  0.40666546  0.26216197    -0.32100
N78         N  0.81122878  0.40681398  0.26092492    -0.26300
C79         C  0.79316199  0.41173232  0.22164915    -0.02400
C80         C  0.81087830  0.41472226  0.19728901     0.09800
C81         C  0.84000229  0.41147149  0.22372181     0.03600
H82         H  0.76904781  0.41380290  0.21187544     0.11200
H83         H  0.86018103  0.41333195  0.21592560     0.10300
N84         N  0.79207780  0.39873828  0.36950134    -0.33500
N85         N  0.81438337  0.39626817  0.40525525    -0.25700
C86         C  0.80312540  0.39511120  0.43630701    -0.00900
C87         C  0.77235937  0.39693292  0.41915463     0.07700
C88         C  0.76597864  0.39922747  0.37684627     0.05800
H89         H  0.81640160  0.39345822  0.46891221     0.10900
H90         H  0.74410869  0.40145624  0.35321437     0.09700
C91         C  0.78385812  0.44029708  0.07608503     0.05700
C92         C  0.78407603  0.47039263  0.06790338    -0.10400
C93         C  0.77491096  0.48060517  0.02689714     0.03200
C94         C  0.76551104  0.46051913  0.99387586    -0.08900
C95         C  0.76532106  0.43027089  0.00209963     0.05700
C96         C  0.77448206  0.42024707  0.04321500    -0.08400
H97         H  0.79133692  0.48587629  0.09345187     0.11300
H98         H  0.75841859  0.46833966  0.96208620     0.08900
H99         H  0.77434037  0.39691643  0.04960236     0.08700
N100        N  0.92663068  0.16388237  0.40545764    -0.24700
N101        N  0.93152191  0.16281824  0.36970731    -0.32500
C102        C  0.96098556  0.16677948  0.37694854     0.03700
C103        C  0.97501262  0.17052935  0.41915423     0.09700
C104        C  0.95273851  0.16855590  0.43634249    -0.03400
H105        H  0.97139608  0.16651453  0.35335971     0.10400
H106        H  0.95530441  0.16999142  0.46889519     0.11600
Cu107      Cu  0.89790901  0.15508883  0.31312981     0.44200
Cu108      Cu  0.88503081  0.15827319  0.41134508     0.42000
Cu109      Cu  0.82276906  0.14558253  0.31764182     0.43900
N110        N  0.86026850  0.14574148  0.26187315    -0.32100
N111        N  0.83302996  0.14233270  0.26362649    -0.26300
C112        C  0.81400235  0.13547561  0.22558710    -0.02400
C113        C  0.83005466  0.13459911  0.19881597     0.09800
C114        C  0.85925800  0.14113374  0.22260744     0.03600
H115        H  0.79038119  0.13093122  0.21822228     0.11200
H116        H  0.87844288  0.14194408  0.21240065     0.10300
N117        N  0.81858611  0.14805424  0.37583644    -0.33500
N118        N  0.84154809  0.15262370  0.41031163    -0.25700
C119        C  0.83170938  0.15305010  0.44277213    -0.00900
C120        C  0.80115958  0.14850281  0.42781825     0.07700
C121        C  0.79346656  0.14542018  0.38539492     0.05800
H122        H  0.84574018  0.15650078  0.47472713     0.10900
H123        H  0.77131496  0.14161924  0.36310909     0.09700
C124        C  0.79694609  0.10941290  0.07731614     0.05700
C125        C  0.79325332  0.07931972  0.06871937    -0.10400
C126        C  0.78101390  0.06943206  0.02764075     0.03200
C127        C  0.77241152  0.08982382  0.99496482    -0.08900
C128        C  0.77610118  0.12005218  0.00355958     0.05700
C129        C  0.78840087  0.12976895  0.04473538    -0.08400
H130        H  0.79976990  0.06359334  0.09401461     0.11300
H131        H  0.76280467  0.08225423  0.96314756     0.08900
H132        H  0.79113880  0.15309920  0.05140862     0.08700
N133        N  0.40237280  0.43092633  0.40896287    -0.24700
N134        N  0.40867911  0.42847936  0.37436761    -0.32500
C135        C  0.43860108  0.42717312  0.38403035     0.03700
C136        C  0.45152736  0.42894052  0.42664938     0.09700
C137        C  0.42808196  0.43125587  0.44159509    -0.03400
H138        H  0.44999157  0.42459031  0.36175735     0.10400
H139        H  0.42951300  0.43253734  0.47374769     0.11600
Cu140      Cu  0.37616610  0.42565017  0.31599937     0.44200
Cu141      Cu  0.35912395  0.43233972  0.41030124     0.42000
Cu142      Cu  0.29847325  0.42539842  0.31243532     0.43900
N143        N  0.33956136  0.42099265  0.26202976    -0.32100
N144        N  0.31137117  0.42079752  0.26071850    -0.26300
C145        C  0.29335500  0.41581180  0.22143645    -0.02400
C146        C  0.31112122  0.41282772  0.19715053     0.09800
C147        C  0.34022287  0.41615034  0.22363314     0.03600
H148        H  0.26923564  0.41371006  0.21160405     0.11200
H149        H  0.36042753  0.41433039  0.21589890     0.10300
N150        N  0.29206309  0.42910546  0.36913833    -0.33500
N151        N  0.31434184  0.43168639  0.40490127    -0.25700
C152        C  0.30304940  0.43292887  0.43590986    -0.00900
C153        C  0.27228903  0.43104941  0.41872340     0.07700
C154        C  0.26594547  0.42862974  0.37643622     0.05800
H155        H  0.31630157  0.43468117  0.46851759     0.10900
H156        H  0.24409041  0.42632707  0.35279141     0.09700
C157        C  0.28428356  0.38721521  0.07598652     0.05700
C158        C  0.27493630  0.40725043  0.04308715    -0.10400
C159        C  0.26583566  0.39720951  0.00198852     0.03200
C160        C  0.26605584  0.36696349  0.99381009    -0.08900
C161        C  0.27542815  0.34689257  0.02685683     0.05700
C162        C  0.28453409  0.35711863  0.06784934    -0.08400
H163        H  0.27476848  0.43058061  0.04943767     0.11300
H164        H  0.25900705  0.35913128  0.96202927     0.08900
H165        H  0.29177199  0.34164656  0.09341747     0.08700
N166        N  0.42662599  0.16303200  0.40526131    -0.24700
N167        N  0.43155551  0.16416789  0.36954044    -0.32500
C168        C  0.46101861  0.16019804  0.37681576     0.03700
C169        C  0.47500699  0.15636761  0.41901461     0.09700
C170        C  0.45271003  0.15830324  0.43616332    -0.03400
H171        H  0.47145696  0.16053353  0.35326317     0.10400
H172        H  0.45524822  0.15682456  0.46870521     0.11600
Cu173      Cu  0.39800516  0.17204897  0.31296447     0.44200
Cu174      Cu  0.38501006  0.16866022  0.41108017     0.42000
Cu175      Cu  0.32284784  0.18158295  0.31735108     0.43900
N176        N  0.36042458  0.18150954  0.26169084    -0.32100
N177        N  0.33317796  0.18492864  0.26339773    -0.26300
C178        C  0.31419300  0.19184217  0.22535526    -0.02400
C179        C  0.33028300  0.19274388  0.19863192     0.09800
C180        C  0.35946289  0.18616666  0.22245352     0.03600
H181        H  0.29057579  0.19639675  0.21795490     0.11200
H182        H  0.37866549  0.18534995  0.21228366     0.10300
N183        N  0.31858960  0.17896984  0.37548961    -0.33500
N184        N  0.34151474  0.17431592  0.40997686    -0.25700
C185        C  0.33163414  0.17383506  0.44239769    -0.00900
C186        C  0.30109650  0.17843401  0.42740559     0.07700
C187        C  0.29345334  0.18160473  0.38499994     0.05800
H188        H  0.34563330  0.17032946  0.47435987     0.10900
H189        H  0.27132838  0.18548398  0.36269760     0.09700
C190        C  0.29735452  0.21803643  0.07716100     0.05700
C191        C  0.28885556  0.19771279  0.04454867    -0.10400
C192        C  0.27662942  0.20746696  0.00337949     0.03200
C193        C  0.27297014  0.23770440  0.99482344    -0.08900
C194        C  0.28152748  0.25806381  0.02753701     0.05700
C195        C  0.29369057  0.24813542  0.06860598    -0.08400
H196        H  0.29156800  0.17437806  0.05119269     0.11300
H197        H  0.26341817  0.24530388  0.96301540     0.08900
H198        H  0.30017182  0.26383742  0.09393096     0.08700
N199        N  0.08906319  0.41379964  0.50597894    -0.24700
N200        N  0.08417948  0.41485974  0.54173441    -0.32500
C201        C  0.05471656  0.41090444  0.53450213     0.03700
C202        C  0.04068248  0.40716275  0.49229664     0.09700
C203        C  0.06295138  0.40913466  0.47509947    -0.03400
H204        H  0.04431146  0.41116369  0.55809865     0.10400
H205        H  0.06037959  0.40769985  0.44254193     0.11600
Cu206      Cu  0.11780683  0.42256190  0.59830458     0.44200
Cu207      Cu  0.13066247  0.41938786  0.50008856     0.42000
Cu208      Cu  0.19295401  0.43201349  0.59379532     0.43900
N209        N  0.15545883  0.43185618  0.64956661    -0.32100
N210        N  0.18269991  0.43524634  0.64781546    -0.26300
C211        C  0.20173620  0.44206762  0.68586399    -0.02400
C212        C  0.18568584  0.44293907  0.71263756     0.09800
C213        C  0.15647568  0.43643994  0.68883948     0.03600
H214        H  0.22536060  0.44659150  0.69323330     0.11200
H215        H  0.13729090  0.43563853  0.69904662     0.10300
N216        N  0.19712012  0.42953108  0.53559324    -0.33500
N217        N  0.17414869  0.42498574  0.50111981    -0.25700
C218        C  0.18398167  0.42454027  0.46865625    -0.00900
C219        C  0.21453608  0.42904950  0.48360339     0.07700
C220        C  0.22223939  0.43212979  0.52602803     0.05800
H221        H  0.16993904  0.42110125  0.43669341     0.10900
H222        H  0.24439861  0.43590555  0.54831093     0.09700
C223        C  0.21880972  0.46808509  0.83414628     0.05700
C224        C  0.22734988  0.44772780  0.86672488    -0.10400
C225        C  0.23965436  0.45744317  0.90790006     0.03200
C226        C  0.24335371  0.48767129  0.91649701    -0.08900
C227        C  0.23475550  0.50806356  0.88382020     0.05700
C228        C  0.22251170  0.49817684  0.84274295    -0.08400
H229        H  0.22460434  0.42439993  0.86005083     0.11300
H230        H  0.25296297  0.49523913  0.94831077     0.08900
H231        H  0.21599760  0.51390450  0.81744588     0.08700
N232        N  0.11333002  0.18059336  0.50237021    -0.24700
N233        N  0.10707347  0.17819615  0.53701245    -0.32500
C234        C  0.07715626  0.17686222  0.52742195     0.03700
C235        C  0.06418233  0.17855966  0.48480103     0.09700
C236        C  0.08759367  0.18086391  0.46978163    -0.03400
H237        H  0.06580406  0.17430537  0.54974190     0.10400
H238        H  0.08612169  0.18209167  0.43760949     0.11600
Cu239      Cu  0.13963877  0.17546054  0.59535633     0.44200
Cu240      Cu  0.15654567  0.18200180  0.50088242     0.42000
Cu241      Cu  0.21727511  0.17526520  0.59868749     0.43900
N242        N  0.17630459  0.17089483  0.64927739    -0.32100
N243        N  0.20447478  0.17072580  0.65050025    -0.26300
C244        C  0.22254511  0.16577622  0.68976472    -0.02400
C245        C  0.20483576  0.16278655  0.71413384     0.09800
C246        C  0.17571094  0.16607072  0.68771718     0.03600
H247        H  0.24665877  0.16368741  0.69952550     0.11200
H248        H  0.15553495  0.16422357  0.69552400     0.10300
N249        N  0.22361707  0.17884499  0.54192368    -0.33500
N250        N  0.20131187  0.18135186  0.50617536    -0.25700
C251        C  0.21256850  0.18250609  0.47512257    -0.00900
C252        C  0.24333235  0.18064399  0.49226654     0.07700
C253        C  0.24971357  0.17832862  0.53457306     0.05800
H254        H  0.19928880  0.18417936  0.44251294     0.10900
H255        H  0.27158119  0.17606234  0.55819846     0.09700
C256        C  0.23189009  0.13719246  0.83533397     0.05700
C257        C  0.24126994  0.15724537  0.86819994    -0.10400
C258        C  0.25044257  0.14722499  0.90931738     0.03200
C259        C  0.25026063  0.11697771  0.91754786    -0.08900
C260        C  0.24085771  0.09688846  0.88453230     0.05700
C261        C  0.23168109  0.10709667  0.84352250    -0.08400
H262        H  0.24140399  0.18057697  0.86180787     0.11300
H263        H  0.25736077  0.10915999  0.94934107     0.08900
H264        H  0.22441733  0.09161162  0.81798004     0.08700
C265        C  0.22248526  0.14735600  0.79307850    -0.10700
C266        C  0.21449957  0.15493649  0.75726018    -0.12200
C267        C  0.23861449  0.03922281  0.89146601    -0.10700
C268        C  0.24043789  0.06569155  0.89172889    -0.12200
C269        C  0.20667197  0.45822798  0.79174330    -0.10700
C270        C  0.19686197  0.45083431  0.75582206    -0.12200
C271        C  0.25989373  0.16819143  0.94279328    -0.10700
C272        C  0.26754993  0.18627051  0.97016679    -0.12200
C273        C  0.28124819  0.17940878  0.45100247    -0.10700
C274        C  0.26422380  0.18008600  0.47025711    -0.12200
C275        C  0.31916527  0.20070061  0.15546486    -0.10700
C276        C  0.30941304  0.20813607  0.11955443    -0.12200
C277        C  0.25640702  0.41815263  0.96847643    -0.10700
C278        C  0.24875188  0.43622325  0.94108642    -0.12200
C279        C  0.27587903  0.31569722  0.01969827    -0.10700
C280        C  0.27769904  0.28923024  0.01993940    -0.12200
C281        C  0.23435520  0.42996735  0.45996135    -0.10700
C282        C  0.25137323  0.43057805  0.44069473    -0.12200
C283        C  0.30152727  0.40497934  0.15403242    -0.10700
C284        C  0.29360771  0.39739616  0.11822331    -0.12200
C285        C  0.03283971  0.17651003  0.46085577    -0.10700
C286        C  0.00650726  0.17413186  0.44123948    -0.12200
C287        C  0.80907957  0.11927294  0.11972056    -0.10700
C288        C  0.81888527  0.12667872  0.15563839    -0.12200
C289        C  0.77533601  0.01180348  0.01971217    -0.10700
C290        C  0.77716096  0.03827248  0.01999047    -0.12200
C291        C  0.00918758  0.40355988  0.47022043    -0.10700
C292        C  0.98285540  0.40117965  0.45060699    -0.12200
C293        C  0.79324729  0.43013131  0.11833801    -0.10700
C294        C  0.80122147  0.42255673  0.15415790    -0.12200
C295        C  0.74820905  0.39122315  0.94125146    -0.10700
C296        C  0.75586930  0.40930608  0.96862034    -0.12200
C297        C  0.50918946  0.42460865  0.47029893    -0.10700
C298        C  0.48286030  0.42694934  0.45065516    -0.12200
C299        C  0.75146504  0.39746027  0.44115951    -0.10700
C300        C  0.73444034  0.39811047  0.46041428    -0.12200
C301        C  0.69654841  0.37674158  0.75595886    -0.10700
C302        C  0.70630862  0.36932046  0.79187459    -0.12200
C303        C  0.75933050  0.15933146  0.94296824    -0.10700
C304        C  0.76699623  0.14126866  0.97036852    -0.12200
C305        C  0.73983627  0.26178173  0.89174873    -0.10700
C306        C  0.73802336  0.28824914  0.89151688    -0.12200
C307        C  0.53282802  0.15046554  0.46078139    -0.10700
C308        C  0.50649769  0.15279596  0.44113562    -0.12200
C309        C  0.76431618  0.14692878  0.47071968    -0.10700
C310        C  0.78133571  0.14755825  0.45145458    -0.12200
C311        C  0.71416678  0.17249478  0.75740212    -0.10700
C312        C  0.72208792  0.18008181  0.79321145    -0.12200
N313        N  0.61331861  0.64651643  0.50246813    -0.24700
N314        N  0.60701373  0.64895515  0.53706544    -0.32500
C315        C  0.57709116  0.65025128  0.52740509     0.03700
C316        C  0.56416301  0.64848577  0.48478565     0.09700
C317        C  0.58760820  0.64618215  0.46983722    -0.03400
H318        H  0.56570141  0.65282489  0.54967981     0.10400
H319        H  0.58617597  0.64490428  0.43768545     0.11600
Cu320      Cu  0.63952987  0.65178573  0.59543472     0.44200
Cu321      Cu  0.65656732  0.64511819  0.50112456     0.42000
Cu322      Cu  0.71722130  0.65205226  0.59899532     0.43900
N323        N  0.67613455  0.65645486  0.64940653    -0.32100
N324        N  0.70432451  0.65665439  0.65071708    -0.26300
C325        C  0.72234018  0.66165029  0.68999806    -0.02400
C326        C  0.70457348  0.66463714  0.71428446     0.09800
C327        C  0.67547247  0.66130464  0.68780199     0.03600
H328        H  0.74645598  0.66375808  0.69982776     0.11200
H329        H  0.65526754  0.66312343  0.69553527     0.10300
N330        N  0.72362919  0.64835970  0.54228516    -0.33500
N331        N  0.70134975  0.64578272  0.50652193    -0.25700
C332        C  0.71264091  0.64455434  0.47551076    -0.00900
C333        C  0.74340126  0.64643860  0.49269434     0.07700
C334        C  0.74974600  0.64884680  0.53498394     0.05800
H335        H  0.69938725  0.64280931  0.44290181     0.10900
H336        H  0.77159967  0.65115098  0.55862611     0.09700
C337        C  0.73141809  0.69026341  0.83545089     0.05700
C338        C  0.74077778  0.67022936  0.86835201    -0.10400
C339        C  0.74988801  0.68027071  0.90945142     0.03200
C340        C  0.74966592  0.71051646  0.91763011    -0.08900
C341        C  0.74028207  0.73058659  0.88458377     0.05700
C342        C  0.73116536  0.72036032  0.84359020    -0.08400
H343        H  0.74094833  0.64689686  0.86200130     0.11300
H344        H  0.75672240  0.71834821  0.94940736     0.08900
H345        H  0.72391951  0.73583282  0.81802206     0.07900
N346        N  0.58905706  0.91435315  0.50616019    -0.24700
N347        N  0.58413232  0.91323127  0.54188531    -0.32500
C348        C  0.55467111  0.91720687  0.53461401     0.03700
C349        C  0.54067881  0.92102628  0.49241462     0.09700
C350        C  0.56297163  0.91907821  0.47526021    -0.03400
H351        H  0.54423510  0.91688602  0.55817505     0.10400
H352        H  0.56043028  0.92055064  0.44271571     0.11600
Cu353      Cu  0.61768891  0.90536650  0.59846020     0.44200
Cu354      Cu  0.63067114  0.90872855  0.50033823     0.42000
Cu355      Cu  0.69285465  0.89589342  0.59407585     0.43900
N356        N  0.65527414  0.89591376  0.64973064    -0.32100
N357        N  0.68252372  0.89251840  0.64802475    -0.26300
C358        C  0.70151293  0.88560914  0.68606615    -0.02400
C359        C  0.68542240  0.88468555  0.71278762     0.09800
C360        C  0.65623793  0.89124508  0.68896639     0.03600
H361        H  0.72513439  0.88107670  0.69346801     0.11200
H362        H  0.63703524  0.89204679  0.69913648     0.10300
N363        N  0.69710493  0.89850302  0.53593300    -0.33500
N364        N  0.67417112  0.90311998  0.50144240    -0.25700
C365        C  0.68404863  0.90360945  0.46901987    -0.00900
C366        C  0.71459259  0.89905478  0.48401257     0.07700
C367        C  0.72224309  0.89590118  0.52642141     0.05800
H368        H  0.67004122  0.90709437  0.43705131     0.10900
H369        H  0.74437728  0.89205709  0.54872798     0.09700
C370        C  0.71837541  0.85943236  0.83427265     0.05700
C371        C  0.72688832  0.87976414  0.86687465    -0.10400
C372        C  0.73911953  0.87001880  0.90804808     0.03200
C373        C  0.74277082  0.83978199  0.91661739    -0.08900
C374        C  0.73420075  0.81941535  0.88391263     0.05700
C375        C  0.72203157  0.82933507  0.84284069    -0.08400
H376        H  0.72418143  0.90309651  0.86021980     0.11300
H377        H  0.75232681  0.83218907  0.94842687     0.08900
H378        H  0.71554061  0.81362883  0.81752535     0.08700
N379        N  0.90236769  0.89707771  0.40908597    -0.24700
N380        N  0.90862669  0.89946120  0.37444426    -0.32500
C381        C  0.93854326  0.90080304  0.38403816     0.03700
C382        C  0.95151430  0.89912519  0.42666022     0.09700
C383        C  0.92810199  0.89682401  0.44167815    -0.03400
H384        H  0.94989845  0.90334874  0.36171577     0.10400
H385        H  0.92957169  0.89560627  0.47384769     0.11600
Cu386      Cu  0.87606352  0.90215605  0.31609708     0.44200
Cu387      Cu  0.85915128  0.89565416  0.41056281     0.42000
Cu388      Cu  0.79842012  0.90229348  0.31273421     0.43900
N389        N  0.83940205  0.90666550  0.26216191    -0.32100
N390        N  0.81122849  0.90681400  0.26092466    -0.26300
C391        C  0.79316232  0.91173239  0.22164921    -0.02400
C392        C  0.81087804  0.91472224  0.19728891     0.09800
C393        C  0.84000222  0.91147143  0.22372176     0.03600
H394        H  0.76904474  0.91380293  0.21187389     0.11200
H395        H  0.86018060  0.91333175  0.21592566     0.10300
N396        N  0.79207800  0.89873834  0.36950155    -0.33500
N397        N  0.81438339  0.89626824  0.40525526    -0.25700
C398        C  0.80312550  0.89511130  0.43630721    -0.00900
C399        C  0.77235955  0.89693286  0.41915494     0.07700
C400        C  0.76597824  0.89922761  0.37684599     0.05800
H401        H  0.81640170  0.89345804  0.46891222     0.10900
H402        H  0.74411119  0.90145585  0.35321740     0.09700
C403        C  0.78385807  0.94029706  0.07608498     0.05700
C404        C  0.78407608  0.97039263  0.06790348    -0.10400
C405        C  0.77491091  0.98060519  0.02689714     0.03200
C406        C  0.76551099  0.96051917  0.99387597    -0.08900
C407        C  0.76532089  0.93027095  0.00209947     0.05700
C408        C  0.77448189  0.92024721  0.04321485    -0.08400
H409        H  0.79133709  0.98587607  0.09345176     0.11300
H410        H  0.75841814  0.96834009  0.96208524     0.08900
H411        H  0.77434010  0.89691615  0.04960224     0.08700
N412        N  0.92663068  0.66388240  0.40545753    -0.24700
N413        N  0.93152185  0.66281820  0.36970725    -0.32500
C414        C  0.96098550  0.66677950  0.37694842     0.03700
C415        C  0.97501263  0.67052928  0.41915412     0.09700
C416        C  0.95273860  0.66855586  0.43634258    -0.03400
H417        H  0.97139597  0.66651447  0.35335974     0.10400
H418        H  0.95530461  0.66999123  0.46889428     0.11600
Cu419      Cu  0.89790893  0.65508880  0.31312982     0.44200
Cu420      Cu  0.88503077  0.65827317  0.41134483     0.42000
Cu421      Cu  0.82276911  0.64558248  0.31764178     0.43900
N422        N  0.86026862  0.64574143  0.26187304    -0.32100
N423        N  0.83303007  0.64233274  0.26362640    -0.26300
C424        C  0.81400232  0.63547554  0.22558686    -0.02400
C425        C  0.83005505  0.63459920  0.19881586     0.09800
C426        C  0.85925801  0.64113381  0.22260754     0.03600
H427        H  0.79038283  0.63093149  0.21822231     0.11200
H428        H  0.87844459  0.64194419  0.21240019     0.10300
N429        N  0.81858622  0.64805423  0.37583654    -0.33500
N430        N  0.84154817  0.65262386  0.41031187    -0.25700
C431        C  0.83170921  0.65305013  0.44277167    -0.00900
C432        C  0.80115985  0.64850293  0.42781872     0.07700
C433        C  0.79346644  0.64542028  0.38539489     0.05800
H434        H  0.84574190  0.65650149  0.47473102     0.10900
H435        H  0.77131655  0.64161936  0.36311101     0.09700
C436        C  0.79694612  0.60941275  0.07731624     0.05700
C437        C  0.79325332  0.57931974  0.06871917    -0.10400
C438        C  0.78101398  0.56943191  0.02764086     0.03200
C439        C  0.77241150  0.58982379  0.99496491    -0.08900
C440        C  0.77610104  0.62005210  0.00355959     0.05700
C441        C  0.78840086  0.62976886  0.04473535    -0.08400
H442        H  0.79977061  0.56359201  0.09401633     0.11300
H443        H  0.76280422  0.58225412  0.96314734     0.08900
H444        H  0.79113860  0.65309906  0.05140858     0.08700
N445        N  0.40237276  0.93092636  0.40896299    -0.24700
N446        N  0.40867888  0.92847938  0.37436770    -0.32500
C447        C  0.43860102  0.92717317  0.38403014     0.03700
C448        C  0.45152725  0.92894053  0.42664958     0.09700
C449        C  0.42808195  0.93125582  0.44159517    -0.03400
H450        H  0.44999040  0.92459063  0.36175889     0.10400
H451        H  0.42951302  0.93253730  0.47374845     0.11600
Cu452      Cu  0.37616604  0.92565033  0.31599939     0.44200
Cu453      Cu  0.35912396  0.93233968  0.41030128     0.42000
Cu454      Cu  0.29847327  0.92539857  0.31243533     0.43900
N455        N  0.33956147  0.92099263  0.26202982    -0.32100
N456        N  0.31137135  0.92079754  0.26071860    -0.26300
C457        C  0.29335485  0.91581176  0.22143632    -0.02400
C458        C  0.31112145  0.91282766  0.19715057     0.09800
C459        C  0.34022287  0.91615028  0.22363324     0.03600
H460        H  0.26923761  0.91371002  0.21160470     0.11200
H461        H  0.36042807  0.91433034  0.21589878     0.10300
N462        N  0.29206321  0.92910546  0.36913842    -0.33500
N463        N  0.31434189  0.93168634  0.40490128    -0.25700
C464        C  0.30304940  0.93292882  0.43590987    -0.00900
C465        C  0.27228916  0.93104935  0.41872357     0.07700
C466        C  0.26594539  0.92862968  0.37643621     0.05800
H467        H  0.31630156  0.93468091  0.46851770     0.10900
H468        H  0.24409166  0.92632722  0.35279304     0.09700
C469        C  0.28428364  0.88721514  0.07598653     0.05700
C470        C  0.27493640  0.90725043  0.04308715    -0.10400
C471        C  0.26583577  0.89720946  0.00198854     0.03200
C472        C  0.26605587  0.86696343  0.99381013    -0.08900
C473        C  0.27542817  0.84689247  0.02685685     0.05700
C474        C  0.28453407  0.85711859  0.06784926    -0.08400
H475        H  0.27476857  0.93058049  0.04943765     0.11300
H476        H  0.25900706  0.85913118  0.96202913     0.08900
H477        H  0.29177235  0.84164624  0.09341788     0.08700
N478        N  0.42662612  0.66303195  0.40526119    -0.24700
N479        N  0.43155576  0.66416786  0.36954009    -0.32500
C480        C  0.46101841  0.66019809  0.37681605     0.03700
C481        C  0.47500718  0.65636758  0.41901402     0.09700
C482        C  0.45271022  0.65830325  0.43616318    -0.03400
H483        H  0.47145875  0.66053359  0.35325887     0.10400
H484        H  0.45524854  0.65682452  0.46870408     0.11600
Cu485      Cu  0.39800521  0.67204913  0.31296443     0.44200
Cu486      Cu  0.38501009  0.66866016  0.41108015     0.42000
Cu487      Cu  0.32284774  0.68158290  0.31735104     0.43900
N488        N  0.36042449  0.68150967  0.26169076    -0.32100
N489        N  0.33317768  0.68492874  0.26339761    -0.26300
C490        C  0.31419333  0.69184201  0.22535549    -0.02400
C491        C  0.33028266  0.69274391  0.19863191     0.09800
C492        C  0.35946288  0.68616678  0.22245339     0.03600
H493        H  0.29057225  0.69639705  0.21795400     0.11200
H494        H  0.37866466  0.68535051  0.21228390     0.10300
N495        N  0.31858934  0.67896979  0.37548947    -0.33500
N496        N  0.34151464  0.67431586  0.40997681    -0.25700
C497        C  0.33163403  0.67383514  0.44239767    -0.00900
C498        C  0.30109625  0.67843409  0.42740538     0.07700
C499        C  0.29345350  0.68160473  0.38500017     0.05800
H500        H  0.34563271  0.67032933  0.47435919     0.10900
H501        H  0.27132623  0.68548430  0.36269565     0.09700
C502        C  0.29735449  0.71803641  0.07716084     0.05700
C503        C  0.28885547  0.69771282  0.04454854    -0.10400
C504        C  0.27662926  0.70746703  0.00337912     0.03200
C505        C  0.27297025  0.73770426  0.99482389    -0.08900
C506        C  0.28152738  0.75806384  0.02753661     0.05700
C507        C  0.29369064  0.74813539  0.06860580    -0.08400
H508        H  0.29156781  0.67437804  0.05119253     0.11300
H509        H  0.26341655  0.74530487  0.96301105     0.08900
H510        H  0.30017199  0.76383736  0.09393065     0.08700
N511        N  0.08906334  0.91379958  0.50597886    -0.24700
N512        N  0.08417968  0.91485973  0.54173427    -0.32500
C513        C  0.05471654  0.91090444  0.53450237     0.03700
C514        C  0.04068262  0.90716276  0.49229636     0.09700
C515        C  0.06295156  0.90913467  0.47509959    -0.03400
H516        H  0.04431255  0.91116351  0.55809663     0.10400
H517        H  0.06037983  0.90769960  0.44254060     0.11600
Cu518      Cu  0.11780689  0.92256204  0.59830453     0.44200
Cu519      Cu  0.13066251  0.91938780  0.50008855     0.42000
Cu520      Cu  0.19295408  0.93201345  0.59379538     0.43900
N521        N  0.15545898  0.93185628  0.64956664    -0.32100
N522        N  0.18270028  0.93524655  0.64781567    -0.26300
C523        C  0.20173590  0.94206775  0.68586387    -0.02400
C524        C  0.18568614  0.94293922  0.71263755     0.09800
C525        C  0.15647572  0.93644006  0.68883942     0.03600
H526        H  0.22536401  0.94659255  0.69323433     0.11200
H527        H  0.13729130  0.93563842  0.69904635     0.10300
N528        N  0.19711989  0.92953095  0.53559309    -0.33500
N529        N  0.17414866  0.92498575  0.50111987    -0.25700
C530        C  0.18398160  0.92454037  0.46865599    -0.00900
C531        C  0.21453602  0.92904963  0.48360331     0.07700
C532        C  0.22223969  0.93212986  0.52602833     0.05800
H533        H  0.16993973  0.92110166  0.43669461     0.10900
H534        H  0.24439643  0.93590513  0.54830881     0.09700
C535        C  0.21880976  0.96808505  0.83414633     0.05700
C536        C  0.22734972  0.94772773  0.86672486    -0.10400
C537        C  0.23965421  0.95744313  0.90790007     0.03200
C538        C  0.24335359  0.98767126  0.91649705    -0.08900
C539        C  0.23475551  0.00806354  0.88382031     0.05700
C540        C  0.22251172  0.99817686  0.84274295    -0.08400
H541        H  0.22460438  0.92440014  0.86005081     0.11300
H542        H  0.25296282  0.99523907  0.94831093     0.08900
H543        H  0.21599776  0.01390410  0.81744649     0.08700
N544        N  0.11333005  0.68059343  0.50237019    -0.24700
N545        N  0.10707348  0.67819626  0.53701252    -0.32500
C546        C  0.07715640  0.67686229  0.52742182     0.03700
C547        C  0.06418235  0.67855959  0.48480107     0.09700
C548        C  0.08759371  0.68086393  0.46978172    -0.03400
H549        H  0.06580371  0.67430522  0.54974271     0.10400
H550        H  0.08612168  0.68209152  0.43760941     0.11600
Cu551      Cu  0.13963878  0.67546070  0.59535631     0.44200
Cu552      Cu  0.15654567  0.68200176  0.50088241     0.42000
Cu553      Cu  0.21727503  0.67526515  0.59868745     0.43900
N554        N  0.17630450  0.67089480  0.64927752    -0.32100
N555        N  0.20447503  0.67072572  0.65050045    -0.26300
C556        C  0.22254460  0.66577619  0.68976444    -0.02400
C557        C  0.20483593  0.66278647  0.71413387     0.09800
C558        C  0.17571116  0.66607068  0.68771712     0.03600
H559        H  0.24666226  0.66368705  0.69952683     0.11200
H560        H  0.15553407  0.66422351  0.69552459     0.10300
N561        N  0.22361685  0.67884496  0.54192352    -0.33500
N562        N  0.20131180  0.68135181  0.50617531    -0.25700
C563        C  0.21256850  0.68250604  0.47512242    -0.00900
C564        C  0.24333233  0.68064392  0.49226656     0.07700
C565        C  0.24971371  0.67832854  0.53457332     0.05800
H566        H  0.19928937  0.68417929  0.44251375     0.10900
H567        H  0.27157968  0.67606243  0.55819708     0.09700
C568        C  0.23189012  0.63719235  0.83533371     0.05700
C569        C  0.24126990  0.65724521  0.86819981    -0.10400
C570        C  0.25044259  0.64722505  0.90931711     0.03200
C571        C  0.25026068  0.61697777  0.91754770    -0.08900
C572        C  0.24085772  0.59688840  0.88453199     0.05700
C573        C  0.23168121  0.60709685  0.84352276    -0.08400
H574        H  0.24140420  0.68057786  0.86180729     0.11300
H575        H  0.25736074  0.60916020  0.94934042     0.08900
H576        H  0.22441663  0.59160995  0.81797725     0.08700
C577        C  0.22248514  0.64735594  0.79307840    -0.10700
C578        C  0.21449955  0.65493646  0.75726008    -0.12200
C579        C  0.23861455  0.53922279  0.89146598    -0.10700
C580        C  0.24043798  0.56569154  0.89172886    -0.12200
C581        C  0.20667187  0.95822797  0.79174330    -0.10700
C582        C  0.19686199  0.95083443  0.75582200    -0.12200
C583        C  0.25989380  0.66819136  0.94279316    -0.10700
C584        C  0.26754987  0.68627045  0.97016665    -0.12200
C585        C  0.28124819  0.67940883  0.45100254    -0.10700
C586        C  0.26422379  0.68008605  0.47025720    -0.12200
C587        C  0.31916525  0.70070056  0.15546487    -0.10700
C588        C  0.30941302  0.70813600  0.11955438    -0.12200
C589        C  0.25640702  0.91815259  0.96847644    -0.10700
C590        C  0.24875184  0.93622318  0.94108639    -0.12200
C591        C  0.27587903  0.81569717  0.01969826    -0.10700
C592        C  0.27769899  0.78923021  0.01993935    -0.12200
C593        C  0.23435523  0.92996745  0.45996131    -0.10700
C594        C  0.25137325  0.93057812  0.44069468    -0.12200
C595        C  0.30152740  0.90497929  0.15403244    -0.10700
C596        C  0.29360772  0.89739613  0.11822331    -0.12200
C597        C  0.03283975  0.67650995  0.46085572    -0.10700
C598        C  0.00650726  0.67413180  0.44123948    -0.12200
C599        C  0.80907956  0.61927301  0.11972052    -0.10700
C600        C  0.81888544  0.62667871  0.15563839    -0.12200
C601        C  0.77533599  0.51180339  0.01971203    -0.10700
C602        C  0.77716095  0.53827240  0.01999044    -0.12200
C603        C  0.00918760  0.90355986  0.47022043    -0.10700
C604        C  0.98285540  0.90117974  0.45060690    -0.12200
C605        C  0.79324728  0.93013126  0.11833798    -0.10700
C606        C  0.80122142  0.92255666  0.15415785    -0.12200
C607        C  0.74820897  0.89122323  0.94125130    -0.10700
C608        C  0.75586912  0.90930611  0.96862022    -0.12200
C609        C  0.50918947  0.92460874  0.47029903    -0.10700
C610        C  0.48286032  0.92694943  0.45065514    -0.12200
C611        C  0.75146505  0.89746025  0.44115962    -0.10700
C612        C  0.73444027  0.89811050  0.46041427    -0.12200
C613        C  0.69654832  0.87674162  0.75595876    -0.10700
C614        C  0.70630859  0.86932044  0.79187446    -0.12200
C615        C  0.75933046  0.65933146  0.94296829    -0.10700
C616        C  0.76699616  0.64126861  0.97036853    -0.12200
C617        C  0.73983623  0.76178177  0.89174866    -0.10700
C618        C  0.73802345  0.78824919  0.89151695    -0.12200
C619        C  0.53282808  0.65046546  0.46078136    -0.10700
C620        C  0.50649778  0.65279597  0.44113542    -0.12200
C621        C  0.76431614  0.64692868  0.47071963    -0.10700
C622        C  0.78133573  0.64755828  0.45145468    -0.12200
C623        C  0.71416678  0.67249471  0.75740218    -0.10700
C624        C  0.72208792  0.68008175  0.79321150    -0.12200
loop_ 
_geom_bond_atom_site_label_1 
_geom_bond_atom_site_label_2 
_geom_bond_distance 
_geom_bond_site_symmetry_2 
_ccdc_geom_bond_type 
N1            N2   1.323       .  A
N1            C5   1.345       .  A
N1           Cu9   2.070       .  S
N2            C3   1.346       .  A
N2           Cu8   2.072       .  S
C3            C4   1.380       .  A
C3            H6   1.082       .  S
C4            C5   1.379       .  A
C4          C307   1.436       .  S
C5            H7   1.082       .  S
Cu8          N11   2.072       .  S
Cu9          N19   2.070       .  S
Cu10         N12   2.073       .  S
Cu10         N18   2.073       .  S
N11          N12   1.324       .  A
N11          C15   1.345       .  A
N12          C13   1.345       .  A
C13          C14   1.379       .  A
C13          H16   1.082       .  S
C14          C15   1.378       .  A
C14         C311   1.435       .  S
C15          H17   1.082       .  S
N18          N19   1.323       .  A
N18          C22   1.346       .  A
N19          C20   1.345       .  A
C20          C21   1.378       .  A
C20          H23   1.082       .  S
C21          C22   1.380       .  A
C21         C309   1.436       .  S
C22          H24   1.082       .  S
C25          C26   1.399       .  A
C25          C30   1.399       .  A
C25         C312   1.438       .  S
C26          C27   1.401       .  A
C26          H31   1.085       .  S
C27          C28   1.406       .  A
C27         C303   1.441       .  S
C28          C29   1.404       .  A
C28          H32   1.084       .  S
C29          C30   1.401       .  A
C29         C305   1.442       .  S
C30          H33   1.084       .  S
N34          N35   1.323       .  A
N34          C38   1.344       .  A
N34         Cu42   2.068       .  S
N35          C36   1.347       .  A
N35         Cu41   2.078       .  S
C36          C37   1.381       .  A
C36          H39   1.082       .  S
C37          C38   1.378       .  A
C37         C297   1.436       .  S
C38          H40   1.082       .  S
Cu41         N44   2.078       .  S
Cu42         N52   2.068       .  S
Cu43         N45   2.073       .  S
Cu43         N51   2.073       .  S
N44          N45   1.324       .  A
N44          C48   1.346       .  A
N45          C46   1.345       .  A
C46          C47   1.378       .  A
C46          H49   1.082       .  S
C47          C48   1.380       .  A
C47         C301   1.437       .  S
C48          H50   1.082       .  S
N51          N52   1.322       .  A
N51          C55   1.345       .  A
N52          C53   1.345       .  A
C53          C54   1.379       .  A
C53          H56   1.082       .  S
C54          C55   1.380       .  A
C54         C300   1.436       .  S
C55          H57   1.082       .  S
C58          C59   1.400       .  A
C58          C63   1.399       .  A
C58         C302   1.440       .  S
C59          C60   1.402       .  A
C59          H64   1.085       .  S
C60          C61   1.406       .  A
C60         C295   1.441       .  S
C61          C62   1.403       .  A
C61          H65   1.084       .  S
C62          C63   1.401       .  A
C62         C306   1.443       .  S
C63          H66   1.085       .  S
N67          N68   1.323       .  A
N67          C71   1.345       .  A
N67         Cu75   2.070       .  S
N68          C69   1.346       .  A
N68         Cu74   2.072       .  S
C69          C70   1.380       .  A
C69          H72   1.082       .  S
C70          C71   1.379       .  A
C70         C292   1.436       .  S
C71          H73   1.082       .  S
Cu74         N77   2.072       .  S
Cu75         N85   2.071       .  S
Cu76         N78   2.073       .  S
Cu76         N84   2.073       .  S
N77          N78   1.324       .  A
N77          C81   1.345       .  A
N78          C79   1.345       .  A
C79          C80   1.379       .  A
C79          H82   1.082       .  S
C80          C81   1.378       .  A
C80         C294   1.435       .  S
C81          H83   1.082       .  S
N84          N85   1.323       .  A
N84          C88   1.346       .  A
N85          C86   1.345       .  A
C86          C87   1.378       .  A
C86          H89   1.082       .  S
C87          C88   1.380       .  A
C87         C299   1.436       .  S
C88          H90   1.082       .  S
C91          C92   1.399       .  A
C91          C96   1.399       .  A
C91         C293   1.438       .  S
C92          C93   1.401       .  A
C92          H97   1.084       .  S
C93          C94   1.404   1_554  A
C93         C601   1.442       .  S
C94          C95   1.406   1_556  A
C94          H98   1.084       .  S
C95          C96   1.401       .  A
C95         C296   1.441   1_554  S
C96          H99   1.085       .  S
N100        N101   1.323       .  A
N100        C104   1.344       .  A
N100       Cu108   2.068       .  S
N101        C102   1.347       .  A
N101       Cu107   2.078       .  S
C102        C103   1.381       .  A
C102        H105   1.082       .  S
C103        C104   1.378       .  A
C103        C286   1.436   1_655  S
C104        H106   1.082       .  S
Cu107       N110   2.078       .  S
Cu108       N118   2.068       .  S
Cu109       N111   2.073       .  S
Cu109       N117   2.073       .  S
N110        N111   1.324       .  A
N110        C114   1.346       .  A
N111        C112   1.345       .  A
C112        C113   1.379       .  A
C112        H115   1.082       .  S
C113        C114   1.380       .  A
C113        C288   1.437       .  S
C114        H116   1.082       .  S
N117        N118   1.322       .  A
N117        C121   1.345       .  A
N118        C119   1.345       .  A
C119        C120   1.379       .  A
C119        H122   1.081       .  S
C120        C121   1.380       .  A
C120        C310   1.436       .  S
C121        H123   1.082       .  S
C124        C125   1.399       .  A
C124        C129   1.400       .  A
C124        C287   1.440       .  S
C125        C126   1.401       .  A
C125        H130   1.084       .  S
C126        C127   1.403   1_554  A
C126        C290   1.443       .  S
C127        C128   1.405   1_556  A
C127        H131   1.084       .  S
C128        C129   1.402       .  A
C128        C304   1.441   1_554  S
C129        H132   1.085       .  S
N133        N134   1.323       .  A
N133        C137   1.345       .  A
N133       Cu141   2.070       .  S
N134        C135   1.345       .  A
N134       Cu140   2.072       .  S
C135        C136   1.380       .  A
C135        H138   1.082       .  S
C136        C137   1.379       .  A
C136        C298   1.436       .  S
C137        H139   1.082       .  S
Cu140       N143   2.072       .  S
Cu141       N151   2.070       .  S
Cu142       N144   2.073       .  S
Cu142       N150   2.073       .  S
N143        N144   1.324       .  A
N143        C147   1.345       .  A
N144        C145   1.345       .  A
C145        C146   1.379       .  A
C145        H148   1.082       .  S
C146        C147   1.378       .  A
C146        C283   1.435       .  S
C147        H149   1.082       .  S
N150        N151   1.323       .  A
N150        C154   1.346       .  A
N151        C152   1.345       .  A
C152        C153   1.378       .  A
C152        H155   1.082       .  S
C153        C154   1.380       .  A
C153        C282   1.436       .  S
C154        H156   1.082       .  S
C157        C158   1.399       .  A
C157        C162   1.399       .  A
C157        C284   1.438       .  S
C158        C159   1.401       .  A
C158        H163   1.085       .  S
C159        C160   1.406   1_554  A
C159        C277   1.441   1_554  S
C160        C161   1.404   1_556  A
C160        H164   1.085       .  S
C161        C162   1.401       .  A
C161        C279   1.442       .  S
C162        H165   1.084       .  S
N166        N167   1.323       .  A
N166        C170   1.344       .  A
N166       Cu174   2.068       .  S
N167        C168   1.347       .  A
N167       Cu173   2.078       .  S
C168        C169   1.381       .  A
C168        H171   1.082       .  S
C169        C170   1.378       .  A
C169        C308   1.436       .  S
C170        H172   1.082       .  S
Cu173       N176   2.078       .  S
Cu174       N184   2.068       .  S
Cu175       N177   2.073       .  S
Cu175       N183   2.073       .  S
N176        N177   1.324       .  A
N176        C180   1.346       .  A
N177        C178   1.345       .  A
C178        C179   1.379       .  A
C178        H181   1.082       .  S
C179        C180   1.380       .  A
C179        C275   1.437       .  S
C180        H182   1.082       .  S
N183        N184   1.322       .  A
N183        C187   1.345       .  A
N184        C185   1.345       .  A
C185        C186   1.379       .  A
C185        H188   1.082       .  S
C186        C187   1.380       .  A
C186        C273   1.436       .  S
C187        H189   1.082       .  S
C190        C191   1.400       .  A
C190        C195   1.399       .  A
C190        C276   1.440       .  S
C191        C192   1.402       .  A
C191        H196   1.085       .  S
C192        C193   1.406   1_554  A
C192        C272   1.441   1_554  S
C193        C194   1.403   1_556  A
C193        H197   1.084       .  S
C194        C195   1.401       .  A
C194        C280   1.443       .  S
C195        H198   1.085       .  S
N199        N200   1.323       .  A
N199        C203   1.344       .  A
N199       Cu207   2.068       .  S
N200        C201   1.347       .  A
N200       Cu206   2.078       .  S
C201        C202   1.381       .  A
C201        H204   1.082       .  S
C202        C203   1.378       .  A
C202        C291   1.436       .  S
C203        H205   1.082       .  S
Cu206       N209   2.078       .  S
Cu207       N217   2.068       .  S
Cu208       N210   2.073       .  S
Cu208       N216   2.073       .  S
N209        N210   1.324       .  A
N209        C213   1.346       .  A
N210        C211   1.345       .  A
C211        C212   1.379       .  A
C211        H214   1.082       .  S
C212        C213   1.380       .  A
C212        C270   1.437       .  S
C213        H215   1.082       .  S
N216        N217   1.322       .  A
N216        C220   1.345       .  A
N217        C218   1.345       .  A
C218        C219   1.379       .  A
C218        H221   1.082       .  S
C219        C220   1.380       .  A
C219        C281   1.436       .  S
C220        H222   1.082       .  S
C223        C224   1.400       .  A
C223        C228   1.399       .  A
C223        C269   1.440       .  S
C224        C225   1.402       .  A
C224        H229   1.085       .  S
C225        C226   1.405       .  A
C225        C278   1.441       .  S
C226        C227   1.403       .  A
C226        H230   1.084       .  S
C227        C228   1.401       .  A
C227        C579   1.442       .  S
C228        H231   1.085       .  S
N232        N233   1.323       .  A
N232        C236   1.345       .  A
N232       Cu240   2.070       .  S
N233        C234   1.346       .  A
N233       Cu239   2.072       .  S
C234        C235   1.380       .  A
C234        H237   1.082       .  S
C235        C236   1.379       .  A
C235        C285   1.436       .  S
C236        H238   1.082       .  S
Cu239       N242   2.072       .  S
Cu240       N250   2.071       .  S
Cu241       N243   2.073       .  S
Cu241       N249   2.073       .  S
N242        N243   1.324       .  A
N242        C246   1.345       .  A
N243        C244   1.345       .  A
C244        C245   1.379       .  A
C244        H247   1.082       .  S
C245        C246   1.378       .  A
C245        C266   1.435       .  S
C246        H248   1.082       .  S
N249        N250   1.323       .  A
N249        C253   1.346       .  A
N250        C251   1.345       .  A
C251        C252   1.378       .  A
C251        H254   1.082       .  S
C252        C253   1.380       .  A
C252        C274   1.436       .  S
C253        H255   1.082       .  S
C256        C257   1.399       .  A
C256        C261   1.399       .  A
C256        C265   1.438       .  S
C257        C258   1.401       .  A
C257        H262   1.085       .  S
C258        C259   1.406       .  A
C258        C271   1.441       .  S
C259        C260   1.404       .  A
C259        H263   1.085       .  S
C260        C261   1.401       .  A
C260        C268   1.442       .  S
C261        H264   1.084       .  S
C265        C266   1.205       .  T
C267        C539   1.442       .  S
C267        C268   1.208       .  T
C269        C270   1.206       .  T
C271        C272   1.207       .  T
C273        C274   1.205       .  T
C275        C276   1.206       .  T
C277        C278   1.207       .  T
C279        C280   1.208       .  T
C281        C282   1.205       .  T
C283        C284   1.205       .  T
C285        C286   1.205       .  T
C287        C288   1.206       .  T
C289        C405   1.442   1_545  S
C289        C290   1.208       .  T
C291        C292   1.205   1_455  T
C293        C294   1.205       .  T
C295        C296   1.207       .  T
C297        C298   1.205       .  T
C299        C300   1.205       .  T
C301        C302   1.206       .  T
C303        C304   1.207       .  T
C305        C306   1.208       .  T
C307        C308   1.205       .  T
C309        C310   1.205       .  T
C311        C312   1.205       .  T
N313        N314   1.323       .  A
N313        C317   1.345       .  A
N313       Cu321   2.070       .  S
N314        C315   1.345       .  A
N314       Cu320   2.072       .  S
C315        C316   1.380       .  A
C315        H318   1.082       .  S
C316        C317   1.379       .  A
C316        C619   1.436       .  S
C317        H319   1.082       .  S
Cu320       N323   2.072       .  S
Cu321       N331   2.070       .  S
Cu322       N324   2.073       .  S
Cu322       N330   2.073       .  S
N323        N324   1.324       .  A
N323        C327   1.345       .  A
N324        C325   1.345       .  A
C325        C326   1.379       .  A
C325        H328   1.082       .  S
C326        C327   1.378       .  A
C326        C623   1.435       .  S
C327        H329   1.082       .  S
N330        N331   1.323       .  A
N330        C334   1.346       .  A
N331        C332   1.345       .  A
C332        C333   1.378       .  A
C332        H335   1.082       .  S
C333        C334   1.380       .  A
C333        C621   1.436       .  S
C334        H336   1.082       .  S
C337        C338   1.399       .  A
C337        C342   1.399       .  A
C337        C624   1.438       .  S
C338        C339   1.401       .  A
C338        H343   1.085       .  S
C339        C340   1.406       .  A
C339        C615   1.441       .  S
C340        C341   1.404       .  A
C340        H344   1.084       .  S
C341        C342   1.401       .  A
C341        C617   1.442       .  S
C342        H345   1.084       .  S
N346        N347   1.323       .  A
N346        C350   1.344       .  A
N346       Cu354   2.068       .  S
N347        C348   1.347       .  A
N347       Cu353   2.078       .  S
C348        C349   1.381       .  A
C348        H351   1.082       .  S
C349        C350   1.378       .  A
C349        C609   1.436       .  S
C350        H352   1.082       .  S
Cu353       N356   2.078       .  S
Cu354       N364   2.068       .  S
Cu355       N357   2.073       .  S
Cu355       N363   2.073       .  S
N356        N357   1.324       .  A
N356        C360   1.346       .  A
N357        C358   1.345       .  A
C358        C359   1.379       .  A
C358        H361   1.082       .  S
C359        C360   1.380       .  A
C359        C613   1.437       .  S
C360        H362   1.082       .  S
N363        N364   1.322       .  A
N363        C367   1.345       .  A
N364        C365   1.345       .  A
C365        C366   1.379       .  A
C365        H368   1.082       .  S
C366        C367   1.380       .  A
C366        C612   1.436       .  S
C367        H369   1.082       .  S
C370        C371   1.400       .  A
C370        C375   1.399       .  A
C370        C614   1.440       .  S
C371        C372   1.402       .  A
C371        H376   1.085       .  S
C372        C373   1.406       .  A
C372        C607   1.441       .  S
C373        C374   1.403       .  A
C373        H377   1.084       .  S
C374        C375   1.401       .  A
C374        C618   1.443       .  S
C375        H378   1.085       .  S
N379        N380   1.323       .  A
N379        C383   1.345       .  A
N379       Cu387   2.070       .  S
N380        C381   1.346       .  A
N380       Cu386   2.072       .  S
C381        C382   1.380       .  A
C381        H384   1.082       .  S
C382        C383   1.379       .  A
C382        C604   1.436       .  S
C383        H385   1.082       .  S
Cu386       N389   2.072       .  S
Cu387       N397   2.071       .  S
Cu388       N390   2.073       .  S
Cu388       N396   2.073       .  S
N389        N390   1.324       .  A
N389        C393   1.345       .  A
N390        C391   1.345       .  A
C391        C392   1.379       .  A
C391        H394   1.082       .  S
C392        C393   1.378       .  A
C392        C606   1.435       .  S
C393        H395   1.082       .  S
N396        N397   1.323       .  A
N396        C400   1.346       .  A
N397        C398   1.345       .  A
C398        C399   1.378       .  A
C398        H401   1.082       .  S
C399        C400   1.380       .  A
C399        C611   1.436       .  S
C400        H402   1.082       .  S
C403        C404   1.399       .  A
C403        C408   1.399       .  A
C403        C605   1.438       .  S
C404        C405   1.401       .  A
C404        H409   1.084       .  S
C405        C406   1.404   1_554  A
C406        C407   1.406   1_556  A
C406        H410   1.085       .  S
C407        C408   1.401       .  A
C407        C608   1.441   1_554  S
C408        H411   1.085       .  S
N412        N413   1.323       .  A
N412        C416   1.344       .  A
N412       Cu420   2.068       .  S
N413        C414   1.347       .  A
N413       Cu419   2.078       .  S
C414        C415   1.381       .  A
C414        H417   1.082       .  S
C415        C416   1.378       .  A
C415        C598   1.436   1_655  S
C416        H418   1.082       .  S
Cu419       N422   2.078       .  S
Cu420       N430   2.068       .  S
Cu421       N423   2.073       .  S
Cu421       N429   2.073       .  S
N422        N423   1.324       .  A
N422        C426   1.346       .  A
N423        C424   1.345       .  A
C424        C425   1.379       .  A
C424        H427   1.082       .  S
C425        C426   1.380       .  A
C425        C600   1.437       .  S
C426        H428   1.082       .  S
N429        N430   1.322       .  A
N429        C433   1.345       .  A
N430        C431   1.345       .  A
C431        C432   1.379       .  A
C431        H434   1.082       .  S
C432        C433   1.380       .  A
C432        C622   1.436       .  S
C433        H435   1.082       .  S
C436        C437   1.399       .  A
C436        C441   1.400       .  A
C436        C599   1.440       .  S
C437        C438   1.401       .  A
C437        H442   1.085       .  S
C438        C439   1.403   1_554  A
C438        C602   1.443       .  S
C439        C440   1.405   1_556  A
C439        H443   1.084       .  S
C440        C441   1.402       .  A
C440        C616   1.441   1_554  S
C441        H444   1.085       .  S
N445        N446   1.323       .  A
N445        C449   1.345       .  A
N445       Cu453   2.070       .  S
N446        C447   1.345       .  A
N446       Cu452   2.072       .  S
C447        C448   1.380       .  A
C447        H450   1.082       .  S
C448        C449   1.379       .  A
C448        C610   1.436       .  S
C449        H451   1.082       .  S
Cu452       N455   2.072       .  S
Cu453       N463   2.070       .  S
Cu454       N456   2.073       .  S
Cu454       N462   2.073       .  S
N455        N456   1.324       .  A
N455        C459   1.345       .  A
N456        C457   1.345       .  A
C457        C458   1.379       .  A
C457        H460   1.082       .  S
C458        C459   1.378       .  A
C458        C595   1.435       .  S
C459        H461   1.082       .  S
N462        N463   1.323       .  A
N462        C466   1.346       .  A
N463        C464   1.345       .  A
C464        C465   1.378       .  A
C464        H467   1.082       .  S
C465        C466   1.380       .  A
C465        C594   1.436       .  S
C466        H468   1.082       .  S
C469        C470   1.399       .  A
C469        C474   1.399       .  A
C469        C596   1.438       .  S
C470        C471   1.401       .  A
C470        H475   1.085       .  S
C471        C472   1.406   1_554  A
C471        C589   1.441   1_554  S
C472        C473   1.404   1_556  A
C472        H476   1.085       .  S
C473        C474   1.401       .  A
C473        C591   1.442       .  S
C474        H477   1.084       .  S
N478        N479   1.323       .  A
N478        C482   1.344       .  A
N478       Cu486   2.068       .  S
N479        C480   1.347       .  A
N479       Cu485   2.078       .  S
C480        C481   1.381       .  A
C480        H483   1.082       .  S
C481        C482   1.378       .  A
C481        C620   1.436       .  S
C482        H484   1.082       .  S
Cu485       N488   2.078       .  S
Cu486       N496   2.068       .  S
Cu487       N489   2.073       .  S
Cu487       N495   2.073       .  S
N488        N489   1.324       .  A
N488        C492   1.346       .  A
N489        C490   1.345       .  A
C490        C491   1.379       .  A
C490        H493   1.082       .  S
C491        C492   1.380       .  A
C491        C587   1.437       .  S
C492        H494   1.082       .  S
N495        N496   1.322       .  A
N495        C499   1.345       .  A
N496        C497   1.345       .  A
C497        C498   1.379       .  A
C497        H500   1.082       .  S
C498        C499   1.380       .  A
C498        C585   1.436       .  S
C499        H501   1.082       .  S
C502        C503   1.400       .  A
C502        C507   1.399       .  A
C502        C588   1.440       .  S
C503        C504   1.402       .  A
C503        H508   1.085       .  S
C504        C505   1.405   1_554  A
C504        C584   1.441   1_554  S
C505        C506   1.403   1_556  A
C505        H509   1.084       .  S
C506        C507   1.401       .  A
C506        C592   1.442       .  S
C507        H510   1.085       .  S
N511        N512   1.323       .  A
N511        C515   1.344       .  A
N511       Cu519   2.068       .  S
N512        C513   1.347       .  A
N512       Cu518   2.078       .  S
C513        C514   1.381       .  A
C513        H516   1.082       .  S
C514        C515   1.377       .  A
C514        C603   1.436       .  S
C515        H517   1.082       .  S
Cu518       N521   2.078       .  S
Cu519       N529   2.068       .  S
Cu520       N522   2.073       .  S
Cu520       N528   2.073       .  S
N521        N522   1.324       .  A
N521        C525   1.346       .  A
N522        C523   1.345       .  A
C523        C524   1.379       .  A
C523        H526   1.082       .  S
C524        C525   1.380       .  A
C524        C582   1.437       .  S
C525        H527   1.082       .  S
N528        N529   1.322       .  A
N528        C532   1.345       .  A
N529        C530   1.345       .  A
C530        C531   1.379       .  A
C530        H533   1.082       .  S
C531        C532   1.380       .  A
C531        C593   1.436       .  S
C532        H534   1.082       .  S
C535        C536   1.400       .  A
C535        C540   1.399       .  A
C535        C581   1.440       .  S
C536        C537   1.402       .  A
C536        H541   1.085       .  S
C537        C538   1.405       .  A
C537        C590   1.441       .  S
C538        C539   1.403   1_565  A
C538        H542   1.084       .  S
C539        C540   1.401   1_545  A
C540        H543   1.085   1_565  S
N544        N545   1.323       .  A
N544        C548   1.345       .  A
N544       Cu552   2.070       .  S
N545        C546   1.346       .  A
N545       Cu551   2.072       .  S
C546        C547   1.380       .  A
C546        H549   1.082       .  S
C547        C548   1.379       .  A
C547        C597   1.436       .  S
C548        H550   1.082       .  S
Cu551       N554   2.072       .  S
Cu552       N562   2.071       .  S
Cu553       N555   2.073       .  S
Cu553       N561   2.073       .  S
N554        N555   1.324       .  A
N554        C558   1.345       .  A
N555        C556   1.345       .  A
C556        C557   1.379       .  A
C556        H559   1.082       .  S
C557        C558   1.378       .  A
C557        C578   1.435       .  S
C558        H560   1.082       .  S
N561        N562   1.323       .  A
N561        C565   1.346       .  A
N562        C563   1.345       .  A
C563        C564   1.378       .  A
C563        H566   1.082       .  S
C564        C565   1.380       .  A
C564        C586   1.436       .  S
C565        H567   1.082       .  S
C568        C569   1.399       .  A
C568        C573   1.399       .  A
C568        C577   1.438       .  S
C569        C570   1.401       .  A
C569        H574   1.085       .  S
C570        C571   1.406       .  A
C570        C583   1.441       .  S
C571        C572   1.404       .  A
C571        H575   1.085       .  S
C572        C573   1.401       .  A
C572        C580   1.442       .  S
C573        H576   1.084       .  S
C577        C578   1.205       .  T
C579        C580   1.208       .  T
C581        C582   1.206       .  T
C583        C584   1.207       .  T
C585        C586   1.205       .  T
C587        C588   1.206       .  T
C589        C590   1.207       .  T
C591        C592   1.208       .  T
C593        C594   1.205       .  T
C595        C596   1.205       .  T
C597        C598   1.205       .  T
C599        C600   1.206       .  T
C601        C602   1.208       .  T
C603        C604   1.205   1_455  T
C605        C606   1.205       .  T
C607        C608   1.207       .  T
C609        C610   1.205       .  T
C611        C612   1.205       .  T
C613        C614   1.206       .  T
C615        C616   1.207       .  T
C617        C618   1.208       .  T
C619        C620   1.205       .  T
C621        C622   1.205       .  T
C623        C624   1.205       .  T
