geometry optimzed in LAMMPS
_audit_creation_date              2020-11-30 
_audit_creation_method            'lammps2cif' 
_symmetry_space_group_name_H-M    'P1' 
_symmetry_Int_Tables_number       1 
_symmetry_cell_setting            triclinic 
loop_ 
_symmetry_equiv_pos_as_xyz 
  x,y,z 
_cell_length_a                    28.30511157 
_cell_length_b                    27.809113645162846 
_cell_length_c                    36.72602978324037 
_cell_angle_alpha                 88.946398074926 
_cell_angle_beta                  88.75423725963924 
_cell_angle_gamma                 90.54801425604155 
loop_ 
_atom_site_label 
_atom_site_type_symbol 
_atom_site_fract_x 
_atom_site_fract_y 
_atom_site_fract_z 
_atom_site_charge 
C1          C  0.14310537  0.12834287  0.06070064    -0.02200
C2          C  0.32270465  0.19715958  0.44015030    -0.02200
C3          C  0.07875988  0.31143529  0.43495922    -0.02200
O4          O  0.24028295  0.20691609  0.45691521    -0.57500
C5          C  0.11971308  0.28341637  0.45208283     0.75100
O6          O  0.14327447  0.20893332  0.03516635    -0.58700
C7          C  0.28088633  0.22647072  0.45509871     0.75100
C8          C  0.22359147  0.33820731  0.04792671     0.77500
Cd9        Cd  0.19885395  0.25778631  0.49982915     1.37500
O10         O  0.16207212  0.29820411  0.44751975    -0.57500
O11         O  0.19536375  0.34518562  0.52100614    -0.56300
C12         C  0.16775339  0.17224501  0.04263748     0.77400
O13         O  0.23222447  0.29447824  0.05507158    -0.58700
O14         O  0.16001214  0.29369285  0.94360174    -0.57100
O15         O  0.28302324  0.26495968  0.96559809    -0.57100
O16         O  0.21023494  0.17489464  0.53200739    -0.56300
C17         C  0.32028147  0.05315979  0.19253274    -0.02200
C18         C  0.25251405  0.37966048  0.06474048    -0.02200
C19         C  0.39437624  0.37521824  0.31551284    -0.02200
O20         O  0.49050307  0.45432203  0.20201780    -0.57500
C21         C  0.36414559  0.02776059  0.20719424     0.75100
O22         O  0.39798431  0.45617451  0.29136485    -0.58700
C23         C  0.02954770  0.47148387  0.20144507     0.75100
C24         C  0.47450866  0.07774644  0.29578697     0.77500
Cd25       Cd  0.44432095  0.99625362  0.25061717     1.37500
O26         O  0.36776423  0.98324222  0.21389567    -0.57500
O27         O  0.43103597  0.07375720  0.28894116    -0.56300
C28         C  0.42144870  0.41913784  0.29938564     0.77400
O29         O  0.49982312  0.04287013  0.28571148    -0.58700
O30         O  0.39871397  0.05360755  0.21678518    -0.57100
O31         O  0.02946329  0.51330433  0.21425849    -0.57100
O32         O  0.46409416  0.41997190  0.28832934    -0.56300
C33         C  0.07184828  0.44738245  0.18291195    -0.02200
O34         O  0.23615459  0.03627883  0.18270949    -0.57500
C35         C  0.11529609  0.47366428  0.16608258     0.75100
O36         O  0.15649765  0.04335613  0.07488197    -0.58700
C37         C  0.27875033  0.02530764  0.17561418     0.75100
C38         C  0.22648626  0.42357419  0.07940474     0.77500
Cd39       Cd  0.19840158  0.00405354  0.12614651     1.37500
O40         O  0.11888609  0.51799581  0.15795095    -0.57500
O41         O  0.18976480  0.42048277  0.09960607    -0.56300
C42         C  0.17153315  0.08623531  0.07724574     0.77400
O43         O  0.24734866  0.46420855  0.07902993    -0.58700
O44         O  0.15081816  0.44856953  0.15759801    -0.57100
O45         O  0.28407801  0.99977362  0.14774642    -0.57100
O46         O  0.20320853  0.09169671  0.10063930    -0.56300
C47         C  0.49945075  0.12334619  0.30938964    -0.02200
O48         O  0.49356711  0.30373578  0.41016193    -0.57500
C49         C  0.36621330  0.22270835  0.42248099     0.75100
O50         O  0.39320197  0.29354309  0.33888678    -0.58700
C51         C  0.03629457  0.28417656  0.41880480     0.75100
C52         C  0.47177054  0.16434070  0.32733852     0.77500
Cd53       Cd  0.44878503  0.24686594  0.37403122     1.37500
O54         O  0.40649796  0.20331421  0.42391818    -0.57500
O55         O  0.48114645  0.20789771  0.31901458    -0.56300
C56         C  0.41897254  0.32893416  0.32847390     0.77400
O57         O  0.44687719  0.15830384  0.35604109    -0.58700
O58         O  0.36363087  0.25710177  0.39962736    -0.57100
O59         O  0.03644727  0.24114841  0.40823933    -0.57100
O60         O  0.46259164  0.32497343  0.33489576    -0.56300
C61         C  0.36620029  0.35804261  0.28189570    -0.19600
C62         C  0.31665048  0.35193499  0.27774910     0.36700
C63         C  0.29824081  0.35170633  0.24218949    -0.25500
C64         C  0.32822439  0.34804936  0.21108219     0.03100
C65         C  0.37649851  0.34067247  0.21659065     0.27900
C66         C  0.39484467  0.34664229  0.25112420    -0.24700
N67         N  0.28576206  0.33614349  0.30715288    -0.82100
H68         H  0.26031468  0.35250973  0.23914030     0.13700
C69         C  0.31030699  0.35223550  0.17300078     0.03100
N70         N  0.40723637  0.32700632  0.18709504    -0.80600
H71         H  0.43276093  0.34432414  0.25364145     0.18500
C72         C  0.33466076  0.38231608  0.14756429    -0.25500
C73         C  0.31985885  0.38790759  0.11144609     0.36600
C74         C  0.27887665  0.36325452  0.09952407    -0.19500
C75         C  0.25426685  0.33376616  0.12571478    -0.24700
C76         C  0.27010349  0.32716123  0.16149343     0.27900
H77         H  0.36509491  0.40288575  0.15603442     0.13700
N78         N  0.34573161  0.42041333  0.08754468    -0.82000
H79         H  0.22086460  0.31723747  0.11915338     0.18500
N80         N  0.24499248  0.29486569  0.18597389    -0.80600
H81         H  0.34619106  0.45441497  0.09921983     0.34200
H82         H  0.38060549  0.40853556  0.08554838     0.38700
H83         H  0.21004018  0.30657510  0.18837191     0.34100
H84         H  0.24451107  0.26092548  0.17431389     0.30800
H85         H  0.43439606  0.35267624  0.18429906     0.34100
H86         H  0.42244265  0.29409436  0.19412348     0.30800
H87         H  0.30405143  0.33057212  0.33130115     0.38700
H88         H  0.25872607  0.36076429  0.31083087     0.34200
C89         C  0.37305240  0.39457086  0.35180323    -0.19600
C90         C  0.32689419  0.41153115  0.35841347     0.36700
C91         C  0.30950897  0.41344220  0.39466461    -0.25500
C92         C  0.34011547  0.40832948  0.42424746     0.03100
C93         C  0.38867802  0.40486289  0.41691386     0.27900
C94         C  0.40454562  0.39818619  0.38117674    -0.24700
N95         N  0.30075568  0.43311914  0.32960857    -0.82100
H96         H  0.27236810  0.42029084  0.39961025     0.13700
C97         C  0.32165015  0.40691812  0.46248541     0.03100
N98         N  0.42189995  0.40812080  0.44569717    -0.80600
H99         H  0.44187556  0.39328377  0.37640070     0.18500
C100        C  0.33684084  0.37055395  0.48649878    -0.25500
C101        C  0.31922277  0.36202089  0.01873801     0.36600
C102        C  0.28447512  0.39428228  0.03153433    -0.19500
C103        C  0.26639910  0.43279167  0.50919847    -0.24700
C104        C  0.28765671  0.43973629  0.47471869     0.27900
H105        H  0.36257641  0.34457088  0.47731470     0.13700
N106        N  0.33458235  0.32297187  0.04136795    -0.82000
H107        H  0.24137491  0.45518511  0.01416546     0.18500
N108        N  0.27396763  0.47943732  0.45174510    -0.80600
H109        H  0.32585871  0.29073736  0.02882563     0.34200
H110        H  0.37133974  0.32519340  0.04310799     0.38700
H111        H  0.24804260  0.50011007  0.46469635     0.34100
H112        H  0.30350040  0.50177114  0.44778212     0.30800
H113        H  0.44241614  0.37711133  0.44572801     0.34100
H114        H  0.44411869  0.43772091  0.44011451     0.30800
H115        H  0.26685559  0.44229433  0.33899862     0.38700
H116        H  0.31777566  0.46566468  0.32316001     0.34200
C117        C  0.05360977  0.42094276  0.14907379    -0.19600
C118        C  0.02720990  0.44685130  0.12206115     0.36700
C119        C  0.02516600  0.43076040  0.08649936    -0.25500
C120        C  0.04938383  0.39017509  0.07582834     0.03100
C121        C  0.07294400  0.36223317  0.10183468     0.27900
C122        C  0.07542340  0.37786248  0.13796696    -0.24700
N123        N  0.00543623  0.49225297  0.12832834    -0.82100
H124        H  0.00636738  0.45177849  0.06639428     0.13700
C125        C  0.05045271  0.37781725  0.03703023     0.03100
N126        N  0.09619804  0.31905736  0.09112307    -0.80600
H127        H  0.09810498  0.35834024  0.15624543     0.18500
C128        C  0.01779687  0.34459145  0.02511916    -0.25500
C129        C  0.02201097  0.32518800  0.99045895     0.36600
C130        C  0.06312915  0.34348059  0.46728856    -0.19500
C131        C  0.09383421  0.38090341  0.47834828    -0.24700
C132        C  0.08487997  0.39685850  0.01258891     0.27900
H133        H  0.99043216  0.33101132  0.04384571     0.13700
N134        N  0.99018417  0.28695950  0.98235206    -0.82000
H135        H  0.12403980  0.39132152  0.46126371     0.18500
N136        N  0.11616390  0.43422591  0.02393710    -0.80600
H137        H  0.99376455  0.26009939  0.00230264     0.34200
H138        H  0.96024131  0.30310306  0.48485423     0.38700
H139        H  0.15386069  0.42745088  0.52169758     0.34100
H140        H  0.11218221  0.46388140  0.00642069     0.30800
H141        H  0.13205085  0.32271711  0.09670514     0.34100
H142        H  0.08232954  0.29059248  0.10718138     0.30800
H143        H  0.97763003  0.48822847  0.14716015     0.38700
H144        H  0.03103118  0.51642645  0.13715986     0.34200
C145        C  0.09745723  0.33868531  0.40044304    -0.19600
C146        C  0.07580165  0.38116494  0.38727131     0.36700
C147        C  0.07918103  0.39372872  0.35020130    -0.25500
C148        C  0.10441587  0.36539961  0.32558062     0.03100
C149        C  0.12999402  0.32622123  0.33852645     0.27900
C150        C  0.12544790  0.31240939  0.37524652    -0.24700
N151        N  0.04928511  0.41132466  0.41098356    -0.82100
H152        H  0.06078033  0.42527578  0.34037421     0.13700
C153        C  0.10443634  0.37886696  0.28658706     0.03100
N154        N  0.16004194  0.29993951  0.31433884    -0.80600
H155        H  0.14150760  0.27878793  0.38327852     0.18500
C156        C  0.12486980  0.42286230  0.27656738    -0.25500
C157        C  0.11651218  0.44390023  0.24271294     0.36600
C158        C  0.09051352  0.41858591  0.21594003    -0.19500
C159        C  0.07134135  0.37307431  0.22606967    -0.24700
C160        C  0.07773954  0.35317928  0.26123214     0.27900
H161        H  0.14380538  0.44332605  0.29657122     0.13700
N162        N  0.13011885  0.49339314  0.23721541    -0.82000
H163        H  0.04779783  0.35493352  0.20789248     0.18500
N164        N  0.05389922  0.30921483  0.27225579    -0.80600
H165        H  0.16647713  0.49642397  0.23975390     0.34200
H166        H  0.11394021  0.51379228  0.25766259     0.38700
H167        H  0.03286975  0.29664825  0.25135854     0.34100
H168        H  0.07963635  0.28311618  0.27649670     0.30800
H169        H  0.19419613  0.30104425  0.32455770     0.34100
H170        H  0.14874519  0.26405815  0.31488284     0.30800
H171        H  0.01501758  0.41456198  0.40102796     0.38700
H172        H  0.06549496  0.44498494  0.40952646     0.34200
C173        C  0.33555326  0.16755039  0.47451399    -0.19600
C174        C  0.37010369  0.18283862  0.99920337     0.36700
C175        C  0.37305006  0.16421373  0.03454698    -0.25500
C176        C  0.34332967  0.12724848  0.04664542     0.03100
C177        C  0.31293342  0.10507429  0.02228743     0.27900
C178        C  0.30682893  0.12756939  0.48520430    -0.24700
N179        N  0.39667120  0.22656359  0.49308335    -0.82100
H180        H  0.39722054  0.18058913  0.05332865     0.13700
C181        C  0.34284560  0.11434878  0.08556787     0.03100
N182        N  0.28435029  0.06497654  0.03441102    -0.80600
H183        H  0.28090844  0.11349518  0.46682719     0.18500
C184        C  0.30969142  0.13549269  0.10891534    -0.25500
C185        C  0.30572870  0.12116247  0.14566257     0.36600
C186        C  0.33635127  0.08559603  0.15986434    -0.19500
C187        C  0.37241821  0.06807532  0.13610931    -0.24700
C188        C  0.37540673  0.08179383  0.09939671     0.27900
H189        H  0.28518616  0.16157429  0.09811526     0.13700
N190        N  0.26811270  0.13995654  0.16768101    -0.82000
H191        H  0.39592424  0.03976814  0.14460202     0.18500
N192        N  0.40991867  0.06052824  0.07569283    -0.80600
H193        H  0.27167865  0.17734592  0.16778021     0.34200
H194        H  0.23590915  0.13121910  0.15601893     0.38700
H195        H  0.44339324  0.06775061  0.08588007     0.34100
H196        H  0.40457772  0.02325026  0.07649825     0.30800
H197        H  0.24914348  0.07318027  0.02950539     0.34100
H198        H  0.29358176  0.03549203  0.01870756     0.30800
H199        H  0.39117443  0.25200494  0.51323747     0.38700
H200        H  0.43448163  0.21070240  0.99153534     0.34200
C201        C  0.30587643  0.16685014  0.40793592    -0.19600
C202        C  0.32994231  0.12476340  0.39675261     0.36700
C203        C  0.32227281  0.10605792  0.36211963    -0.25500
C204        C  0.29251120  0.12926988  0.33750526     0.03100
C205        C  0.26728328  0.16966645  0.34857024     0.27900
C206        C  0.27451185  0.18837918  0.38300697    -0.24700
N207        N  0.36442255  0.10250521  0.41937305    -0.82100
H208        H  0.34213753  0.07495027  0.35353107     0.13700
C209        C  0.29205275  0.11358760  0.29927269     0.03100
N210        N  0.23543776  0.19296072  0.32432052    -0.80600
H211        H  0.25746105  0.22207193  0.38902037     0.18500
C212        C  0.27897107  0.06640078  0.29196220    -0.25500
C213        C  0.28397324  0.04828780  0.25685052     0.36600
C214        C  0.30276301  0.07772431  0.22768886    -0.19500
C215        C  0.31596388  0.12540163  0.23562222    -0.24700
C216        C  0.30950211  0.14374038  0.27073818     0.27900
H217        H  0.26656465  0.04273626  0.31401837     0.13700
N218        N  0.27503125  0.99811347  0.25177951    -0.82000
H219        H  0.33386833  0.14792986  0.21524793     0.18500
N220        N  0.32255352  0.19254044  0.27777697    -0.80600
H221        H  0.29895637  0.97914716  0.26770749     0.34200
H222        H  0.24120327  0.98987391  0.26185202     0.38700
H223        H  0.35828158  0.19740178  0.27132977     0.34100
H224        H  0.30338734  0.21498056  0.26048299     0.30800
H225        H  0.20244100  0.19412535  0.33743657     0.34100
H226        H  0.24715934  0.22845900  0.32007959     0.30800
H227        H  0.35399357  0.06674078  0.42431579     0.38700
H228        H  0.39675324  0.10239001  0.40510790     0.34200
C229        C  0.11537999  0.14449950  0.09487519    -0.19600
C230        C  0.13605124  0.17658139  0.12029684     0.36700
C231        C  0.11933405  0.17735182  0.15637735    -0.25500
C232        C  0.08235165  0.14734091  0.16821524     0.03100
C233        C  0.05931464  0.11803104  0.14296344     0.27900
C234        C  0.07668968  0.11587397  0.10723686    -0.24700
N235        N  0.17549927  0.20713434  0.11041339    -0.82100
H236        H  0.13623656  0.20081082  0.17555757     0.13700
C237        C  0.06782169  0.14706538  0.20696004     0.03100
N238        N  0.01962974  0.08815951  0.15328704    -0.80600
H239        H  0.06135048  0.08950182  0.08952528     0.18500
C240        C  0.02338113  0.16451259  0.21566691    -0.25500
C241        C  0.00375407  0.15765906  0.25033749     0.36600
C242        C  0.03020551  0.13584407  0.27865497    -0.19500
C243        C  0.07649274  0.12051527  0.26998087    -0.24700
C244        C  0.09578703  0.12658693  0.23445090     0.27900
H245        H  0.00227277  0.18097475  0.19461921     0.13700
N246        N  0.44333749  0.17429282  0.25461713    -0.82000
H247        H  0.09669491  0.10132763  0.29015416     0.18500
N248        N  0.14298682  0.11104423  0.22594467    -0.80600
H249        H  0.43833404  0.21064657  0.24812946     0.34200
H250        H  0.42171253  0.15390015  0.23793562     0.38700
H251        H  0.15911600  0.09734955  0.24932994     0.34100
H252        H  0.14067252  0.08284428  0.20774866     0.30800
H253        H  0.02902733  0.06672281  0.17539207     0.34100
H254        H  0.99140942  0.10988124  0.16118114     0.30800
H255        H  0.16583569  0.24267833  0.11509233     0.38700
H256        H  0.20351981  0.19898522  0.12741877     0.34200
C257        C  0.03464919  0.10422628  0.34661536    -0.19600
C258        C  0.07071780  0.13546634  0.35916652     0.36700
C259        C  0.08674677  0.13086532  0.39489850    -0.25500
C260        C  0.06598522  0.09759940  0.41952893     0.03100
C261        C  0.03072574  0.06609711  0.40772169     0.27900
C262        C  0.01618980  0.06889207  0.37163847    -0.24700
N263        N  0.08837961  0.17464389  0.33679350    -0.82100
H264        H  0.11358430  0.15560277  0.40417923     0.13700
C265        C  0.08027080  0.09817032  0.45789649     0.03100
N266        N  0.00747534  0.03249490  0.43232558    -0.80600
H267        H  0.48774196  0.05000792  0.35994234     0.18500
C268        C  0.05315302  0.12349753  0.48333675    -0.25500
C269        C  0.07074645  0.13128370  0.01725236     0.36600
C270        C  0.11366731  0.10969211  0.02841397    -0.19500
C271        C  0.13932432  0.08530210  0.50330881    -0.24700
C272        C  0.12322760  0.07809159  0.46830238     0.27900
H273        H  0.02032407  0.13973275  0.47501832     0.13700
N274        N  0.04663958  0.16494308  0.03990690    -0.82000
H275        H  0.17464957  0.07297410  0.50894628     0.18500
N276        N  0.15224834  0.05181614  0.44330524    -0.80600
H277        H  0.01187813  0.15274533  0.04417213     0.34200
H278        H  0.04558883  0.19793581  0.02585185     0.38700
H279        H  0.13239288  0.02294126  0.43378771     0.34100
H280        H  0.16162916  0.07435900  0.42118106     0.30800
H281        H  0.47667863  0.04563686  0.42984042     0.34100
H282        H  0.99101255  0.05174218  0.45321110     0.30800
H283        H  0.08219106  0.20682056  0.35035104     0.38700
H284        H  0.12478753  0.17065166  0.33360868     0.34200
C285        C  0.14240954  0.13082686  0.56190460    -0.02200
C286        C  0.32337697  0.19231215  0.93975841    -0.02200
C287        C  0.07571616  0.30956063  0.93313226    -0.02200
O288        O  0.24311489  0.19985232  0.96262904    -0.57500
C289        C  0.11724278  0.28168060  0.95045546     0.75100
O290        O  0.14366910  0.21079246  0.53607092    -0.58700
C291        C  0.28172438  0.22173220  0.95544002     0.75100
C292        C  0.22045364  0.33920978  0.54878097     0.77500
Cd293      Cd  0.19875919  0.25690979  0.99863122     1.37500
O294        O  0.11175930  0.25390474  0.97791274    -0.57500
O295        O  0.19890683  0.34450823  0.01995268    -0.56300
C296        C  0.16767327  0.17371638  0.54325521     0.77400
O297        O  0.23092207  0.29575934  0.55543610    -0.58700
O298        O  0.11359715  0.25238671  0.47738054    -0.57100
O299        O  0.28458026  0.26522505  0.47236318    -0.57100
O300        O  0.21050760  0.17450227  0.03196121    -0.56300
C301        C  0.31838947  0.05149132  0.69147232    -0.02200
C302        C  0.24789598  0.38102463  0.56620313    -0.02200
C303        C  0.39290323  0.36170926  0.81264068    -0.02200
O304        O  0.48267801  0.45139821  0.70158727    -0.57500
C305        C  0.36243577  0.02592068  0.70644563     0.75100
O306        O  0.39371720  0.44518452  0.79308929    -0.58700
C307        C  0.02216198  0.47870604  0.70147312     0.75100
C308        C  0.48022520  0.07437240  0.79569287     0.77500
Cd309      Cd  0.44533108  0.99563382  0.74985767     1.37500
O310        O  0.36539376  0.98197055  0.71543810    -0.57500
O311        O  0.43656917  0.07250067  0.78909987    -0.56300
C312        C  0.41793222  0.40755380  0.79754860     0.77400
O313        O  0.50391901  0.03876766  0.78488281    -0.58700
O314        O  0.39794200  0.05147773  0.71441490    -0.57100
O315        O  0.02234328  0.52115373  0.71321289    -0.57100
O316        O  0.45948559  0.40987175  0.78428725    -0.56300
C317        C  0.06427106  0.45369401  0.68337032    -0.02200
O318        O  0.23373707  0.03581021  0.68184581    -0.57500
C319        C  0.10807526  0.48086599  0.66778568     0.75100
O320        O  0.15813267  0.04534292  0.57294507    -0.58700
C321        C  0.27616092  0.02418123  0.67459317     0.75100
C322        C  0.22115289  0.42455772  0.58125407     0.77500
Cd323      Cd  0.19436838  0.00420202  0.62557312     1.37500
O324        O  0.10697077  0.51615072  0.64564376    -0.57500
O325        O  0.18620120  0.42075647  0.60322087    -0.56300
C326        C  0.16979792  0.08848102  0.57904944     0.77400
O327        O  0.24033975  0.46594251  0.57956944    -0.58700
O328        O  0.14848331  0.46235068  0.67168591    -0.57100
O329        O  0.28076280  0.99887051  0.64649064    -0.57100
O330        O  0.19746214  0.09328393  0.60539119    -0.56300
C331        C  0.50680401  0.11821815  0.81044014    -0.02200
O332        O  0.49714724  0.29876037  0.91078816    -0.57500
C333        C  0.36801030  0.21582032  0.92181090     0.75100
O334        O  0.39632612  0.28023491  0.83624409    -0.58700
C335        C  0.03277767  0.28343871  0.91713406     0.75100
C336        C  0.47980775  0.15917087  0.82900040     0.77500
Cd337      Cd  0.45279292  0.24066216  0.87539533     1.37500
O338        O  0.40431447  0.19022865  0.91668607    -0.57500
O339        O  0.49216978  0.20261469  0.82313691    -0.56300
C340        C  0.41997228  0.31719400  0.82608056     0.77400
O341        O  0.45130593  0.15251701  0.85562421    -0.58700
O342        O  0.37095743  0.25777807  0.90804914    -0.57100
O343        O  0.03165483  0.24052347  0.90651485    -0.57100
O344        O  0.46327979  0.31672493  0.83398426    -0.56300
C345        C  0.36665392  0.34281282  0.77913135    -0.19600
C346        C  0.31818905  0.33160157  0.77664732     0.36700
C347        C  0.29732956  0.33359597  0.74199542    -0.25500
C348        C  0.32571508  0.33723854  0.70987365     0.03100
C349        C  0.37493608  0.33305362  0.71317099     0.27900
C350        C  0.39476765  0.33576057  0.74742372    -0.24700
N351        N  0.29115877  0.31640376  0.80833059    -0.82100
H352        H  0.25923726  0.33316321  0.74053036     0.13700
C353        C  0.30542386  0.34693045  0.67323490     0.03100
N354        N  0.40516954  0.32758812  0.68170201    -0.80600
H355        H  0.43291731  0.33606627  0.74888322     0.18500
C356        C  0.32823096  0.38076656  0.64970004    -0.25500
C357        C  0.31328766  0.38910600  0.61402682     0.36600
C358        C  0.27326382  0.36416138  0.60099446    -0.19500
C359        C  0.24844947  0.33325908  0.62600864    -0.24700
C360        C  0.26455505  0.32356174  0.66115207     0.27900
H361        H  0.35792728  0.40159250  0.65918361     0.13700
N362        N  0.33814524  0.42423601  0.59167350    -0.82000
H363        H  0.21487461  0.31768757  0.61896353     0.18500
N364        N  0.23879411  0.29018724  0.68435593    -0.80600
H365        H  0.33759109  0.45718508  0.60489095     0.34200
H366        H  0.37338052  0.41365570  0.58911728     0.38700
H367        H  0.20422918  0.30270599  0.68751339     0.34100
H368        H  0.23726322  0.25721412  0.67128964     0.30800
H369        H  0.42953221  0.35614207  0.68072123     0.34100
H370        H  0.42399007  0.29569570  0.68498072     0.30800
H371        H  0.25651579  0.30868072  0.80117503     0.38700
H372        H  0.30538610  0.28402849  0.81778234     0.34200
C373        C  0.36896580  0.37997587  0.84837919    -0.19600
C374        C  0.32200613  0.39665060  0.85472739     0.36700
C375        C  0.30594330  0.40293109  0.89093592    -0.25500
C376        C  0.33731857  0.40077809  0.92018230     0.03100
C377        C  0.38559157  0.39624512  0.91254978     0.27900
C378        C  0.40069206  0.38667507  0.87730838    -0.24700
N379        N  0.29285693  0.41554394  0.82646710    -0.82100
H380        H  0.26903273  0.41086458  0.89598633     0.13700
C381        C  0.32028540  0.40136816  0.95864801     0.03100
N382        N  0.41956120  0.40097879  0.94070373    -0.80600
H383        H  0.43826708  0.38307590  0.87270128     0.18500
C384        C  0.33613952  0.36555270  0.98275258    -0.25500
C385        C  0.31753274  0.36534224  0.52183303     0.36600
C386        C  0.28093615  0.39616027  0.53376148    -0.19500
C387        C  0.26982452  0.43123503  0.00705924    -0.24700
C388        C  0.28810661  0.43552464  0.97138606     0.27900
H389        H  0.36042370  0.33843938  0.97312557     0.13700
N390        N  0.33280683  0.32643711  0.54466359    -0.82000
H391        H  0.23632699  0.45491708  0.51558998     0.18500
N392        N  0.27276367  0.47376257  0.94788411    -0.80600
H393        H  0.32562798  0.29419667  0.53172863     0.34200
H394        H  0.36937704  0.32966739  0.54765722     0.38700
H395        H  0.23608025  0.47121247  0.94593403     0.34100
H396        H  0.28082119  0.50654734  0.95991492     0.30800
H397        H  0.43913791  0.36929630  0.94203000     0.34100
H398        H  0.44258902  0.42929538  0.93343185     0.30800
H399        H  0.30982385  0.41498017  0.80103237     0.38700
H400        H  0.26114464  0.39620313  0.82598866     0.34200
C401        C  0.04784797  0.42665599  0.64935984    -0.19600
C402        C  0.01785245  0.44953828  0.62340915     0.36700
C403        C  0.01946072  0.43632260  0.58675056    -0.25500
C404        C  0.04976651  0.40053438  0.57486942     0.03100
C405        C  0.07570505  0.37424976  0.60038246     0.27900
C406        C  0.07543606  0.38790177  0.63695459    -0.24700
N407        N  0.98672429  0.48759488  0.63338659    -0.82100
H408        H  0.99759810  0.45499445  0.56726841     0.13700
C409        C  0.05122769  0.38745890  0.53616689     0.03100
N410        N  0.10297947  0.33390525  0.58896225    -0.80600
H411        H  0.09995334  0.37037054  0.65494471     0.18500
C412        C  0.01903238  0.35322066  0.52494313    -0.25500
C413        C  0.02526415  0.33005974  0.49179269     0.36600
C414        C  0.05911585  0.34074496  0.96567296    -0.19500
C415        C  0.08930978  0.37807429  0.97735886    -0.24700
C416        C  0.08784226  0.40304390  0.51230536     0.27900
H417        H  0.99087521  0.34121035  0.54355968     0.13700
N418        N  0.99480958  0.29021560  0.48515157    -0.82000
H419        H  0.11841644  0.39049138  0.95987722     0.18500
N420        N  0.11942105  0.44054349  0.52291690    -0.80600
H421        H  0.99767313  0.26575304  0.50690617     0.34200
H422        H  0.95582955  0.30043411  0.98396519     0.38700
H423        H  0.15086966  0.42229301  0.02092103     0.34100
H424        H  0.11716427  0.46870843  0.50389136     0.30800
H425        H  0.13798165  0.33990968  0.59596505     0.34100
H426        H  0.09062184  0.30351494  0.60362020     0.30800
H427        H  0.95219780  0.47646109  0.62796051     0.38700
H428        H  0.99464810  0.51734634  0.61653399     0.34200
C429        C  0.09402292  0.33656082  0.89826300    -0.19600
C430        C  0.07355530  0.37998499  0.88556793     0.36700
C431        C  0.07845395  0.39387526  0.84881108    -0.25500
C432        C  0.10165407  0.36480481  0.82342666     0.03100
C433        C  0.12324083  0.32260906  0.83535282     0.27900
C434        C  0.11929319  0.30881768  0.87221423    -0.24700
N435        N  0.04446516  0.40838941  0.90891259    -0.82100
H436        H  0.06143208  0.42654094  0.83957458     0.13700
C437        C  0.10148772  0.37986486  0.78461818     0.03100
N438        N  0.14796970  0.29301133  0.80991991    -0.80600
H439        H  0.13299913  0.27392452  0.87982265     0.18500
C440        C  0.11863801  0.42576454  0.77623905    -0.25500
C441        C  0.10662788  0.44902684  0.74407658     0.36600
C442        C  0.08183424  0.42417288  0.71650694    -0.19500
C443        C  0.06689858  0.37648223  0.72430627    -0.24700
C444        C  0.07614116  0.35442730  0.75829379     0.27900
H445        H  0.13721186  0.44585431  0.79665306     0.13700
N446        N  0.11644601  0.49957372  0.74075944    -0.82000
H447        H  0.04496197  0.35754373  0.70540033     0.18500
N448        N  0.05713887  0.30756679  0.76684227    -0.80600
H449        H  0.15304462  0.50478323  0.74203518     0.34200
H450        H  0.10054417  0.51676717  0.76276004     0.38700
H451        H  0.02037779  0.30885546  0.76439793     0.34100
H452        H  0.07025816  0.28380082  0.74749353     0.30800
H453        H  0.18181300  0.28702123  0.81981597     0.34100
H454        H  0.13063184  0.25988200  0.80918361     0.30800
H455        H  0.01104151  0.41057000  0.89766872     0.38700
H456        H  0.05896447  0.44310849  0.90917499     0.34200
C457        C  0.33769954  0.16312533  0.97410094    -0.19600
C458        C  0.36688444  0.18600180  0.50080056     0.36700
C459        C  0.36905777  0.16506141  0.53545300    -0.25500
C460        C  0.33932620  0.12715890  0.54574673     0.03100
C461        C  0.30903000  0.10694870  0.52015293     0.27900
C462        C  0.30994928  0.12314807  0.98635612    -0.24700
N463        N  0.39985808  0.22285702  0.98961642    -0.82100
H464        H  0.39271855  0.18023450  0.55516552     0.13700
C465        C  0.33838604  0.11215911  0.58424281     0.03100
N466        N  0.27966084  0.06610432  0.52918796    -0.80600
H467        H  0.28384130  0.10773451  0.96875225     0.18500
C468        C  0.30555748  0.13299120  0.60797684    -0.25500
C469        C  0.30305147  0.11929148  0.64483399     0.36600
C470        C  0.33400667  0.08369953  0.65857120    -0.19500
C471        C  0.36971126  0.06637495  0.63448647    -0.24700
C472        C  0.37210448  0.08039047  0.59768125     0.27900
H473        H  0.28080548  0.15909389  0.59755495     0.13700
N474        N  0.26701872  0.13932424  0.66776535    -0.82000
H475        H  0.39349373  0.03842023  0.64312992     0.18500
N476        N  0.40773175  0.06146657  0.57353842    -0.80600
H477        H  0.27147728  0.17669892  0.66739346     0.34200
H478        H  0.23398893  0.13115873  0.65746963     0.38700
H479        H  0.43063920  0.03912373  0.58779577     0.34100
H480        H  0.39078574  0.03989336  0.55472944     0.30800
H481        H  0.30146150  0.03772139  0.53690002     0.34100
H482        H  0.25833156  0.07461506  0.55159579     0.30800
H483        H  0.39432421  0.24971802  0.00871569     0.38700
H484        H  0.43112608  0.21391631  0.49505715     0.34200
C485        C  0.30471487  0.16284686  0.90751876    -0.19600
C486        C  0.32836551  0.12137428  0.89468696     0.36700
C487        C  0.32192062  0.10622761  0.85886911    -0.25500
C488        C  0.29181673  0.13080360  0.83528132     0.03100
C489        C  0.26470918  0.16890851  0.84860165     0.27900
C490        C  0.27213736  0.18518518  0.88375105    -0.24700
N491        N  0.36081667  0.09579439  0.91711932    -0.82100
H492        H  0.34201383  0.07596644  0.84894444     0.13700
C493        C  0.29014474  0.11594729  0.79688424     0.03100
N494        N  0.22927015  0.19163434  0.82713554    -0.80600
H495        H  0.25377167  0.21752900  0.89142374     0.18500
C496        C  0.27356044  0.06985092  0.78960512    -0.25500
C497        C  0.27951664  0.05023679  0.75506492     0.36600
C498        C  0.30137678  0.07762646  0.72608658    -0.19500
C499        C  0.31779183  0.12444155  0.73386937    -0.24700
C500        C  0.31150032  0.14396353  0.76864542     0.27900
H501        H  0.25831204  0.04773547  0.81155383     0.13700
N502        N  0.26746456  0.00058272  0.75046734    -0.82000
H503        H  0.33797679  0.14515517  0.71361301     0.18500
N504        N  0.32893196  0.19135888  0.77569857    -0.80600
H505        H  0.28838662  0.97998737  0.76769035     0.34200
H506        H  0.23222961  0.99530939  0.75874534     0.38700
H507        H  0.36510870  0.19232448  0.77012231     0.34100
H508        H  0.31291519  0.21541737  0.75759028     0.30800
H509        H  0.24508059  0.20689861  0.80362755     0.34100
H510        H  0.20519260  0.16529973  0.81933240     0.30800
H511        H  0.34882421  0.06018125  0.91989433     0.38700
H512        H  0.39373389  0.09543020  0.90369003     0.34200
C513        C  0.11519216  0.14913430  0.59561698    -0.19600
C514        C  0.13697649  0.18198413  0.61995404     0.36700
C515        C  0.11966172  0.18631552  0.65553860    -0.25500
C516        C  0.08122590  0.15894341  0.66800817     0.03100
C517        C  0.05715752  0.12873690  0.64412552     0.27900
C518        C  0.07559193  0.12250144  0.60883481    -0.24700
N519        N  0.17867003  0.20904197  0.60976749    -0.82100
H520        H  0.13765472  0.20988153  0.67406247     0.13700
C521        C  0.06795416  0.15983448  0.70677810     0.03100
N522        N  0.01556025  0.10260333  0.65643756    -0.80600
H523        H  0.06023437  0.09502915  0.59210877     0.18500
C524        C  0.02526368  0.18055665  0.71632608    -0.25500
C525        C  0.00500825  0.17231162  0.75064522     0.36600
C526        C  0.03012121  0.14645186  0.77804700    -0.19500
C527        C  0.07505041  0.12831938  0.76848413    -0.24700
C528        C  0.09435827  0.13517018  0.73313758     0.27900
H529        H  0.00532458  0.19969703  0.69584885     0.13700
N530        N  0.45444111  0.17499256  0.75680936    -0.82000
H531        H  0.09377793  0.10600745  0.78769936     0.18500
N532        N  0.13980668  0.11586255  0.72350405    -0.80600
H533        H  0.45046328  0.21214303  0.75324929     0.34200
H534        H  0.43340072  0.15773044  0.73787089     0.38700
H535        H  0.15504642  0.09933453  0.74611468     0.34100
H536        H  0.13465698  0.08910226  0.70430128     0.30800
H537        H  0.98901843  0.12763630  0.66151726     0.34100
H538        H  0.00284000  0.08144343  0.63561197     0.30800
H539        H  0.17111117  0.24561495  0.61265057     0.38700
H540        H  0.20540066  0.20022257  0.62757865     0.34200
C541        C  0.03353400  0.11076001  0.84539689    -0.19600
C542        C  0.07198904  0.13863979  0.85867414     0.36700
C543        C  0.08766182  0.13096015  0.89445555    -0.25500
C544        C  0.06561322  0.09729345  0.91805314     0.03100
C545        C  0.02949891  0.06805807  0.90507219     0.27900
C546        C  0.01385575  0.07480567  0.86936816    -0.24700
N547        N  0.09420455  0.17598675  0.83666486    -0.82100
H548        H  0.11571918  0.15338448  0.90478344     0.13700
C549        C  0.07903210  0.09595117  0.95685617     0.03100
N550        N  0.00732302  0.03251731  0.92853558    -0.80600
H551        H  0.48975766  0.04614437  0.86088111     0.18500
C552        C  0.05337214  0.12296534  0.98221180    -0.25500
C553        C  0.06950782  0.13148330  0.51864427     0.36600
C554        C  0.11351675  0.11202571  0.52953389    -0.19500
C555        C  0.13770516  0.08092571  0.00254153    -0.24700
C556        C  0.12111753  0.07432928  0.96734667     0.27900
H557        H  0.02145292  0.14089552  0.97378952     0.13700
N558        N  0.04274529  0.16225852  0.54190818    -0.82000
H559        H  0.17203218  0.06638642  0.00839336     0.18500
N560        N  0.14867494  0.04787834  0.94153241    -0.80600
H561        H  0.00893738  0.14737109  0.54554906     0.34200
H562        H  0.03951765  0.19569561  0.52867102     0.38700
H563        H  0.18195784  0.06444868  0.93879556     0.34100
H564        H  0.15337446  0.01321339  0.95220185     0.30800
H565        H  0.47716372  0.04489664  0.93098890     0.34100
H566        H  0.00992574  0.99959654  0.91561681     0.30800
H567        H  0.07090885  0.20470180  0.83503308     0.38700
H568        H  0.12423249  0.18930896  0.84929102     0.34200
C569        C  0.14427618  0.62778026  0.05896301    -0.02200
C570        C  0.32331439  0.68842559  0.44000743    -0.02200
C571        C  0.07426081  0.80179465  0.43600026    -0.02200
O572        O  0.24285266  0.69688202  0.46214076    -0.57500
C573        C  0.11697662  0.77550202  0.45277756     0.75100
O574        O  0.14520233  0.70786284  0.03268578    -0.58700
C575        C  0.28173574  0.71820227  0.45497355     0.75100
C576        C  0.22805568  0.83755553  0.04677025     0.77500
Cd577      Cd  0.20065977  0.75524767  0.49827649     1.37500
O578        O  0.15914077  0.78900443  0.44496916    -0.57500
O579        O  0.19746348  0.84360552  0.51824777    -0.56300
C580        C  0.16940779  0.67117638  0.04072574     0.77400
O581        O  0.24114263  0.79440162  0.05112012    -0.58700
O582        O  0.16624010  0.78940624  0.94235073    -0.57100
O583        O  0.28186431  0.76669343  0.96097620    -0.57100
O584        O  0.21336300  0.67429826  0.53258820    -0.56300
C585        C  0.32461558  0.54928917  0.19166196    -0.02200
C586        C  0.25497753  0.87966826  0.06472490    -0.02200
C587        C  0.39035716  0.86788262  0.31201066    -0.02200
O588        O  0.48100387  0.95067473  0.20046091    -0.57500
C589        C  0.36910151  0.52518345  0.20662892     0.75100
O590        O  0.39054037  0.94936537  0.28874992    -0.58700
C591        C  0.02806664  0.97000352  0.20374134     0.75100
C592        C  0.47792205  0.58300521  0.29367737     0.77500
Cd593      Cd  0.45150122  0.49927651  0.25009185     1.37500
O594        O  0.37447094  0.48094322  0.21377168    -0.57500
O595        O  0.44114204  0.58483301  0.27476476    -0.56300
C596        C  0.41541878  0.91319407  0.29634770     0.77400
O597        O  0.49829446  0.54256051  0.29433160    -0.58700
O598        O  0.40256067  0.55250185  0.21617768    -0.57100
O599        O  0.03075663  0.00569227  0.22442724    -0.57100
O600        O  0.45841790  0.91637648  0.28643956    -0.56300
C601        C  0.07106461  0.94506888  0.18618176    -0.02200
O602        O  0.24044422  0.53321738  0.18139686    -0.57500
C603        C  0.11399179  0.97231032  0.16916541     0.75100
O604        O  0.16249989  0.54292767  0.07068452    -0.58700
C605        C  0.28294832  0.52216405  0.17391502     0.75100
C606        C  0.22749615  0.92248878  0.08027544     0.77500
Cd607      Cd  0.20064670  0.50499156  0.12482164     1.37500
O608        O  0.11462070  0.01513297  0.15691732    -0.57500
O609        O  0.19135992  0.91805131  0.10098861    -0.56300
C610        C  0.17321492  0.58650336  0.07594819     0.77400
O611        O  0.24627232  0.96411022  0.07950828    -0.58700
O612        O  0.15155382  0.94894496  0.16338029    -0.57100
O613        O  0.28777944  0.49807946  0.14523328    -0.57100
O614        O  0.20144070  0.59278310  0.10172859    -0.56300
C615        C  0.50374434  0.62739881  0.30812522    -0.02200
O616        O  0.49501935  0.79796539  0.41402976    -0.57500
C617        C  0.36673985  0.71461240  0.42240051     0.75100
O618        O  0.39753598  0.78511359  0.33222446    -0.58700
C619        C  0.03204637  0.77462276  0.41998715     0.75100
C620        C  0.47610262  0.66853636  0.32512712     0.77500
Cd621      Cd  0.44911947  0.74515072  0.37502360     1.37500
O622        O  0.40652058  0.69399524  0.42103075    -0.57500
O623        O  0.49466726  0.71015012  0.32532775    -0.56300
C624        C  0.41814456  0.82547974  0.32804907     0.77400
O625        O  0.44062243  0.66234788  0.34620086    -0.58700
O626        O  0.36482282  0.75336482  0.40395042    -0.57100
O627        O  0.03014979  0.73046163  0.41273716    -0.57100
O628        O  0.45762640  0.82891704  0.34334307    -0.56300
C629        C  0.36813194  0.84590616  0.27756419    -0.19600
C630        C  0.32138249  0.82910614  0.27345987     0.36700
C631        C  0.30342785  0.82612723  0.23793887    -0.25500
C632        C  0.33399120  0.82964798  0.20707239     0.03100
C633        C  0.38287757  0.82945476  0.21280016     0.27900
C634        C  0.39944253  0.83817151  0.24756992    -0.24700
N635        N  0.29360921  0.81252307  0.30437171    -0.82100
H636        H  0.26574354  0.82197821  0.23478962     0.13700
C637        C  0.31579863  0.83833432  0.16965397     0.03100
N638        N  0.41575461  0.82173068  0.18326511    -0.80600
H639        H  0.43726186  0.84155353  0.25072873     0.18500
C640        C  0.33735640  0.87456643  0.14757822    -0.25500
C641        C  0.32054679  0.88658197  0.11297642     0.36600
C642        C  0.28085308  0.86181583  0.09914773    -0.19500
C643        C  0.25826474  0.82716591  0.12244159    -0.24700
C644        C  0.27590711  0.81436375  0.15654409     0.27900
H645        H  0.36674058  0.89523473  0.15774414     0.13700
N646        N  0.34343792  0.92485596  0.09248093    -0.82000
H647        H  0.22539072  0.81053439  0.11494471     0.18500
N648        N  0.25285254  0.77686758  0.17757168    -0.80600
H649        H  0.34274377  0.95593172  0.10805942     0.34200
H650        H  0.37883829  0.91575056  0.08836477     0.38700
H651        H  0.21769082  0.78681532  0.18218958     0.34100
H652        H  0.25248494  0.74639448  0.16158775     0.30800
H653        H  0.43861677  0.85154634  0.18104597     0.34100
H654        H  0.43594535  0.79172062  0.18988583     0.30800
H655        H  0.31032892  0.78252280  0.31550598     0.38700
H656        H  0.26066441  0.80033996  0.29592720     0.34200
C657        C  0.36368199  0.88806978  0.34609990    -0.19600
C658        C  0.31454103  0.89686024  0.35242132     0.36700
C659        C  0.29796268  0.90344628  0.38853780    -0.25500
C660        C  0.32964730  0.90959661  0.41716948     0.03100
C661        C  0.37778482  0.91396451  0.40879329     0.27900
C662        C  0.39415911  0.90319419  0.37401069    -0.24700
N663        N  0.28269939  0.90903595  0.32392398    -0.82100
H664        H  0.26026804  0.90532851  0.39399617     0.13700
C665        C  0.31352168  0.90897555  0.45589998     0.03100
N666        N  0.41032945  0.92873684  0.43586762    -0.80600
H667        H  0.43189681  0.90566310  0.36895475     0.18500
C668        C  0.33392006  0.87596104  0.48013661    -0.25500
C669        C  0.32659493  0.86926447  0.02112858     0.36600
C670        C  0.28743712  0.89696566  0.03250582    -0.19500
C671        C  0.26065857  0.93343581  0.50463790    -0.24700
C672        C  0.27801884  0.93935453  0.46878740     0.27900
H673        H  0.36129758  0.85209357  0.47038802     0.13700
N674        N  0.34725129  0.83521013  0.04559017    -0.82000
H675        H  0.23907594  0.95240945  0.01381205     0.18500
N676        N  0.25886740  0.97572362  0.44538835    -0.80600
H677        H  0.33923073  0.80053630  0.03705897     0.34200
H678        H  0.38379249  0.84041148  0.04519413     0.38700
H679        H  0.22251777  0.96959100  0.44368492     0.34100
H680        H  0.26396031  0.00906834  0.45755122     0.30800
H681        H  0.43478908  0.90122617  0.43962341     0.34100
H682        H  0.42847885  0.95930065  0.42594596     0.30800
H683        H  0.29961436  0.90898030  0.29844575     0.38700
H684        H  0.25387379  0.88541035  0.32473349     0.34200
C685        C  0.05503328  0.91649855  0.15268920    -0.19600
C686        C  0.02657091  0.93930867  0.12565704     0.36700
C687        C  0.02780939  0.92377391  0.08967609    -0.25500
C688        C  0.05722597  0.88666153  0.07916225     0.03100
C689        C  0.08225773  0.86093892  0.10551399     0.27900
C690        C  0.08151163  0.87609237  0.14175212    -0.24700
N691        N  0.99821955  0.98032897  0.13362159    -0.82100
H692        H  0.00697288  0.94226969  0.06942410     0.13700
C693        C  0.05966983  0.87330724  0.04063768     0.03100
N694        N  0.10974891  0.82026770  0.09518109    -0.80600
H695        H  0.10526070  0.85869938  0.16042773     0.18500
C696        C  0.02966117  0.83715013  0.02949194    -0.25500
C697        C  0.03398286  0.81841428  0.99467512     0.36600
C698        C  0.05714648  0.83297495  0.46844138    -0.19500
C699        C  0.08788400  0.86942655  0.48060534    -0.24700
C700        C  0.09284243  0.89389794  0.01584679     0.27900
H701        H  0.00385551  0.82157787  0.04866678     0.13700
N702        N  0.00390391  0.77903109  0.98632857    -0.82000
H703        H  0.11805254  0.88062662  0.46375762     0.18500
N704        N  0.12140049  0.93386346  0.02639066    -0.80600
H705        H  0.00691945  0.75255591  0.00666986     0.34200
H706        H  0.95247915  0.79526393  0.48477730     0.38700
H707        H  0.09818102  0.95460259  0.53419725     0.34100
H708        H  0.15693182  0.92453081  0.02313716     0.30800
H709        H  0.14486037  0.82712292  0.10195554     0.34100
H710        H  0.09765492  0.79057587  0.11059519     0.30800
H711        H  0.00881898  0.00845230  0.11597893     0.38700
H712        H  0.96304928  0.97163627  0.12810166     0.34200
C713        C  0.09240409  0.82880939  0.40112316    -0.19600
C714        C  0.07332524  0.87293918  0.38860941     0.36700
C715        C  0.08011885  0.88754866  0.35209632    -0.25500
C716        C  0.10525590  0.85921258  0.32731882     0.03100
C717        C  0.12680395  0.81722887  0.33952831     0.27900
C718        C  0.11900572  0.80155968  0.37554062    -0.24700
N719        N  0.04453206  0.90177730  0.41186790    -0.82100
H720        H  0.06368564  0.92038209  0.34257657     0.13700
C721        C  0.10616902  0.87362266  0.28847421     0.03100
N722        N  0.15647825  0.79049105  0.31534612    -0.80600
H723        H  0.13224651  0.76640559  0.38299541     0.18500
C724        C  0.12638272  0.91797897  0.27903266    -0.25500
C725        C  0.11661310  0.94044625  0.24586722     0.36600
C726        C  0.08954397  0.91627542  0.21925091    -0.19500
C727        C  0.07128982  0.87011852  0.22851173    -0.24700
C728        C  0.07925887  0.84882650  0.26285633     0.27900
H729        H  0.14605375  0.93757771  0.29909722     0.13700
N730        N  0.13045910  0.98987927  0.24088875    -0.82000
H731        H  0.04768133  0.85199916  0.21033780     0.18500
N732        N  0.05708179  0.80373562  0.27261650    -0.80600
H733        H  0.16709554  0.99224896  0.24202458     0.34200
H734        H  0.11600421  0.00957393  0.26238806     0.38700
H735        H  0.02053796  0.80754938  0.27009545     0.34100
H736        H  0.06839413  0.77819027  0.25392278     0.30800
H737        H  0.18903220  0.78588720  0.32777456     0.34100
H738        H  0.14134116  0.75658828  0.31208149     0.30800
H739        H  0.01162807  0.90569468  0.40000538     0.38700
H740        H  0.06031442  0.93589329  0.41297262     0.34200
C741        C  0.33722089  0.66008987  0.47488827    -0.19600
C742        C  0.36784597  0.69157582  0.00288255     0.36700
C743        C  0.37103103  0.67173311  0.03790653    -0.25500
C744        C  0.34841591  0.62879506  0.04731744     0.03100
C745        C  0.32433140  0.60291911  0.02091806     0.27900
C746        C  0.31069123  0.61885195  0.48642915    -0.24700
N747        N  0.39625273  0.72212799  0.49198872    -0.82100
H748        H  0.38944647  0.69115393  0.05874758     0.13700
C749        C  0.34751498  0.61392191  0.08588015     0.03100
N750        N  0.30159675  0.55813853  0.03060466    -0.80600
H751        H  0.28671388  0.60174474  0.46796423     0.18500
C752        C  0.31325623  0.63317604  0.10933294    -0.25500
C753        C  0.30956947  0.61792963  0.14589001     0.36600
C754        C  0.34068190  0.58274319  0.15959219    -0.19500
C755        C  0.37786044  0.56727745  0.13598791    -0.24700
C756        C  0.38158359  0.58273539  0.09974400     0.27900
H757        H  0.28801776  0.65871160  0.09881385     0.13700
N758        N  0.27198103  0.63546164  0.16846499    -0.82000
H759        H  0.40228840  0.53979986  0.14439524     0.18500
N760        N  0.41945912  0.56513057  0.07727891    -0.80600
H761        H  0.27645191  0.67240528  0.17047145     0.34200
H762        H  0.23973586  0.62840183  0.15619853     0.38700
H763        H  0.40494876  0.54703204  0.05529812     0.34100
H764        H  0.43907211  0.59450338  0.06705602     0.30800
H765        H  0.26584146  0.56069646  0.02446925     0.34100
H766        H  0.31660975  0.53146637  0.01445287     0.30800
H767        H  0.38876747  0.74961533  0.51001753     0.38700
H768        H  0.40381643  0.75158257  0.01934800     0.34200
C769        C  0.30603438  0.65690161  0.40831245    -0.19600
C770        C  0.33287879  0.61738060  0.39560046     0.36700
C771        C  0.32517571  0.59895510  0.36086844    -0.25500
C772        C  0.29134660  0.61895685  0.33805615     0.03100
C773        C  0.26139434  0.65477979  0.35146449     0.27900
C774        C  0.26931934  0.67385990  0.38575210    -0.24700
N775        N  0.37015723  0.59767097  0.41676449    -0.82100
H776        H  0.34785048  0.57072011  0.35076935     0.13700
C777        C  0.29185023  0.60562365  0.29925563     0.03100
N778        N  0.22328552  0.67310758  0.33043413    -0.80600
H779        H  0.24818802  0.70446704  0.39324055     0.18500
C780        C  0.27647169  0.55987179  0.28983816    -0.25500
C781        C  0.28450266  0.54277274  0.25465486     0.36600
C782        C  0.30606960  0.57286900  0.22700070    -0.19500
C783        C  0.32159906  0.61910688  0.23706429    -0.24700
C784        C  0.31474482  0.63539192  0.27282790     0.27900
H785        H  0.26076572  0.53612754  0.31057510     0.13700
N786        N  0.27541510  0.49290043  0.24799799    -0.82000
H787        H  0.34210677  0.64138923  0.21797766     0.18500
N788        N  0.33396486  0.68089193  0.28309104    -0.80600
H789        H  0.29845678  0.47233680  0.26354749     0.34200
H790        H  0.24106552  0.48437057  0.25669296     0.38700
H791        H  0.37058503  0.67989892  0.27915426     0.34100
H792        H  0.32063359  0.70750070  0.26580935     0.30800
H793        H  0.23699755  0.68808275  0.30611838     0.34100
H794        H  0.20132166  0.64410968  0.32407554     0.30800
H795        H  0.36305293  0.56105798  0.42115779     0.38700
H796        H  0.40155247  0.60075211  0.40133064     0.34200
C797        C  0.11679578  0.64575659  0.09301161    -0.19600
C798        C  0.13761986  0.67974990  0.11702085     0.36700
C799        C  0.11861188  0.68637152  0.15201032    -0.25500
C800        C  0.08017703  0.65912041  0.16491572     0.03100
C801        C  0.05733581  0.62766051  0.14100871     0.27900
C802        C  0.07750867  0.61899400  0.10668835    -0.24700
N803        N  0.18066028  0.70493011  0.10756594    -0.82100
H804        H  0.13583411  0.71121606  0.16999798     0.13700
C805        C  0.06774684  0.65929850  0.20432223     0.03100
N806        N  0.01417334  0.60318109  0.15113256    -0.80600
H807        H  0.06273506  0.59030046  0.09080610     0.18500
C808        C  0.02276849  0.67395366  0.21482336    -0.25500
C809        C  0.00460221  0.66313885  0.24961380     0.36600
C810        C  0.03355647  0.64158716  0.27671101    -0.19500
C811        C  0.08043783  0.63033311  0.26653479    -0.24700
C812        C  0.09755408  0.63859599  0.23075378     0.27900
H813        H  0.99988106  0.69021899  0.19488013     0.13700
N814        N  0.45807699  0.69066355  0.25310891    -0.82000
H815        H  0.10288499  0.61167617  0.28552149     0.18500
N816        N  0.14430732  0.62287472  0.22152094    -0.80600
H817        H  0.45820464  0.72797357  0.24903100     0.34200
H818        H  0.43568317  0.67557566  0.23399869     0.38700
H819        H  0.14226601  0.59847183  0.20022556     0.34100
H820        H  0.16449820  0.65255874  0.21264478     0.30800
H821        H  0.01852963  0.58539975  0.17595267     0.34100
H822        H  0.98750667  0.62866254  0.15429671     0.30800
H823        H  0.17454595  0.74173900  0.10938934     0.38700
H824        H  0.20609042  0.69555483  0.12653637     0.34200
C825        C  0.04280918  0.60551049  0.34373876    -0.19600
C826        C  0.07501064  0.63946311  0.35806989     0.36700
C827        C  0.08977935  0.63524343  0.39424375    -0.25500
C828        C  0.07176371  0.59892792  0.41752211     0.03100
C829        C  0.04201961  0.56339362  0.40352753     0.27900
C830        C  0.02913888  0.56594113  0.36686504    -0.24700
N831        N  0.08945303  0.68096631  0.33705358    -0.82100
H832        H  0.11316754  0.66244787  0.40489841     0.13700
C833        C  0.08393775  0.59945433  0.45653415     0.03100
N834        N  0.02122431  0.52674609  0.42684359    -0.80600
H835        H  0.47661025  0.56288083  0.36173242     0.18500
C836        C  0.05849367  0.62840408  0.48068225    -0.25500
C837        C  0.07064743  0.62566647  0.01589555     0.36600
C838        C  0.11583219  0.60845740  0.02614479    -0.19500
C839        C  0.13896515  0.58195410  0.50426118    -0.24700
C840        C  0.12400904  0.57561031  0.46862137     0.27900
H841        H  0.02804316  0.64780216  0.47100513     0.13700
N842        N  0.04134851  0.65161070  0.04066594    -0.82000
H843        H  0.17237427  0.56609099  0.51099773     0.18500
N844        N  0.15171868  0.54766977  0.44381932    -0.80600
H845        H  0.00854012  0.63405425  0.04284268     0.34200
H846        H  0.03618712  0.68592130  0.02968203     0.38700
H847        H  0.18571683  0.56272089  0.44204858     0.34100
H848        H  0.15441975  0.51283997  0.45466971     0.30800
H849        H  0.46449949  0.55831501  0.43159550     0.34100
H850        H  0.99959200  0.54352658  0.44613935     0.30800
H851        H  0.07795637  0.71147995  0.35072039     0.38700
H852        H  0.12629589  0.68162012  0.33602609     0.34200
C853        C  0.14452372  0.63123053  0.56157192    -0.02200
C854        C  0.32709246  0.69446696  0.94085032    -0.02200
C855        C  0.08256377  0.80803572  0.93475657    -0.02200
O856        O  0.24926807  0.69729442  0.96775968    -0.57500
C857        C  0.12350459  0.77825505  0.95003656     0.75100
O858        O  0.14659574  0.71018522  0.53486878    -0.58700
C859        C  0.28461293  0.72181134  0.95639939     0.75100
C860        C  0.22328687  0.83871020  0.54575472     0.77500
Cd861      Cd  0.20268765  0.75567916  0.99821798     1.37500
O862        O  0.11776451  0.75057052  0.97750117    -0.57500
O863        O  0.19946069  0.84339905  0.02114240    -0.56300
C864        C  0.17039287  0.67328233  0.54275278     0.77400
O865        O  0.23485048  0.79559635  0.55252167    -0.58700
O866        O  0.11317908  0.74779416  0.48032956    -0.57100
O867        O  0.28392567  0.76139578  0.46523492    -0.57100
O868        O  0.21271184  0.67344165  0.03143080    -0.56300
C869        C  0.31880194  0.55073724  0.69409488    -0.02200
C870        C  0.24960417  0.88167905  0.56292240    -0.02200
C871        C  0.39412707  0.86778284  0.81284792    -0.02200
O872        O  0.48685308  0.94269281  0.70820648    -0.57500
C873        C  0.36218264  0.52379078  0.70885865     0.75100
O874        O  0.39569853  0.95089103  0.79316524    -0.58700
C875        C  0.02173990  0.97582033  0.69967758     0.75100
C876        C  0.47344165  0.57500128  0.79814389     0.77500
Cd877      Cd  0.44451912  0.49322502  0.75257176     1.37500
O878        O  0.36182063  0.48165466  0.72248470    -0.57500
O879        O  0.43608799  0.57798488  0.77999301    -0.56300
C880        C  0.41961446  0.91304055  0.79757187     0.77400
O881        O  0.49265179  0.53402137  0.79788212    -0.58700
O882        O  0.40014754  0.54738821  0.71332228    -0.57100
O883        O  0.02242784  0.01861113  0.71072282    -0.57100
O884        O  0.46066484  0.91423779  0.78332741    -0.56300
C885        C  0.06361750  0.94929333  0.68277214    -0.02200
O886        O  0.23416461  0.53913487  0.68307275    -0.57500
C887        C  0.10710857  0.97583554  0.66608893     0.75100
O888        O  0.15769445  0.54633602  0.57536123    -0.58700
C889        C  0.27599119  0.52432713  0.67753503     0.75100
C890        C  0.22132121  0.92344904  0.57911748     0.77500
Cd891      Cd  0.19540507  0.50648117  0.62714994     1.37500
O892        O  0.10545185  0.01049927  0.64340997    -0.57500
O893        O  0.18990598  0.91742389  0.60389383    -0.56300
C894        C  0.17167563  0.58924176  0.57923921     0.77400
O895        O  0.23619672  0.96636373  0.57497536    -0.58700
O896        O  0.14781627  0.95816764  0.67028440    -0.57100
O897        O  0.28028287  0.49682856  0.65063582    -0.57100
O898        O  0.20162681  0.59459041  0.60401003    -0.56300
C899        C  0.50135586  0.61871225  0.81188896    -0.02200
O900        O  0.49880299  0.80141262  0.90694922    -0.57500
C901        C  0.36968547  0.72124168  0.92283695     0.75100
O902        O  0.39660765  0.78561685  0.83477163    -0.58700
C903        C  0.03855014  0.78361560  0.91886785     0.75100
C904        C  0.47556716  0.66089536  0.82932864     0.77500
Cd905      Cd  0.45169356  0.74375693  0.87398284     1.37500
O906        O  0.41146338  0.70694403  0.92809619    -0.57500
O907        O  0.49143524  0.70329324  0.82434996    -0.56300
C908        C  0.42064976  0.82279962  0.82587654     0.77400
O909        O  0.44455567  0.65611435  0.85431600    -0.58700
O910        O  0.36573206  0.75115316  0.89676829    -0.57100
O911        O  0.03598624  0.74079325  0.90815648    -0.57100
O912        O  0.46353228  0.82202836  0.83505886    -0.56300
C913        C  0.36684851  0.85034489  0.77885654    -0.19600
C914        C  0.31775957  0.84121478  0.77507610     0.36700
C915        C  0.29841791  0.84371117  0.73983998    -0.25500
C916        C  0.32780838  0.84565784  0.70817792     0.03100
C917        C  0.37653999  0.83981654  0.71263169     0.27900
C918        C  0.39539976  0.84221490  0.74736266    -0.24700
N919        N  0.28976900  0.81837152  0.80365210    -0.82100
H920        H  0.26040106  0.84241101  0.73742246     0.13700
C921        C  0.30877402  0.85245607  0.67057902     0.03100
N922        N  0.40717198  0.83139212  0.68186039    -0.80600
H923        H  0.43346540  0.84041208  0.74947815     0.18500
C924        C  0.33094127  0.88588010  0.64628036    -0.25500
C925        C  0.31574351  0.89265735  0.61028444     0.36600
C926        C  0.27697577  0.86555625  0.59731294    -0.19500
C927        C  0.25398594  0.83357629  0.62267976    -0.24700
C928        C  0.26988438  0.82606492  0.65825305     0.27900
H929        H  0.35997521  0.90784876  0.65554529     0.13700
N930        N  0.33877140  0.92860584  0.58754839    -0.82000
H931        H  0.22132182  0.81600048  0.61581999     0.18500
N932        N  0.24596676  0.79160711  0.68170622    -0.80600
H933        H  0.33640520  0.96173844  0.60031190     0.34200
H934        H  0.37458370  0.91998083  0.58520619     0.38700
H935        H  0.21046521  0.80158533  0.68416304     0.34100
H936        H  0.24715041  0.75831709  0.66915115     0.30800
H937        H  0.43304994  0.85850679  0.68060346     0.34100
H938        H  0.42403475  0.79856924  0.68622953     0.30800
H939        H  0.30768821  0.81653524  0.82802031     0.38700
H940        H  0.25795169  0.83668452  0.80722330     0.34200
C941        C  0.37231709  0.88622409  0.84921590    -0.19600
C942        C  0.32543488  0.90092001  0.85629917     0.36700
C943        C  0.31000113  0.90730015  0.89267419    -0.25500
C944        C  0.34206206  0.90646225  0.92152739     0.03100
C945        C  0.39038490  0.90409343  0.91301552     0.27900
C946        C  0.40490365  0.89422325  0.87748844    -0.24700
N947        N  0.29629886  0.91738796  0.82742938    -0.82100
H948        H  0.27280764  0.91318463  0.89809057     0.13700
C949        C  0.32531209  0.90667649  0.96024048     0.03100
N950        N  0.42485312  0.91205506  0.94035422    -0.80600
H951        H  0.44248750  0.89176647  0.87206373     0.18500
C952        C  0.34407265  0.87335795  0.98519242    -0.25500
C953        C  0.31795115  0.87112727  0.51643351     0.36600
C954        C  0.27999996  0.89936503  0.52949346    -0.19500
C955        C  0.27005486  0.93152703  0.00736369    -0.24700
C956        C  0.28955629  0.93760573  0.97222930     0.27900
H957        H  0.37171708  0.84919437  0.97651604     0.13700
N958        N  0.33764202  0.83434224  0.53904775    -0.82000
H959        H  0.22932084  0.95345721  0.51163344     0.18500
N960        N  0.27196428  0.97448370  0.94849872    -0.80600
H961        H  0.33113857  0.80133007  0.52707042     0.34200
H962        H  0.37425207  0.83995840  0.53981326     0.38700
H963        H  0.23556739  0.96889274  0.94581066     0.34100
H964        H  0.27694826  0.00766934  0.96065390     0.30800
H965        H  0.44646618  0.88182221  0.94191261     0.34100
H966        H  0.44575912  0.94159163  0.93206973     0.30800
H967        H  0.26163286  0.90579671  0.83311150     0.38700
H968        H  0.29536089  0.95483397  0.82896313     0.34200
C969        C  0.04675713  0.91939051  0.65026371    -0.19600
C970        C  0.01514379  0.93924499  0.62410183     0.36700
C971        C  0.01372332  0.92110814  0.58884495    -0.25500
C972        C  0.04416526  0.88494205  0.57798765     0.03100
C973        C  0.07276252  0.86230197  0.60377639     0.27900
C974        C  0.07408701  0.87961475  0.63943062    -0.24700
N975        N  0.98661606  0.98021062  0.63181318    -0.82100
H976        H  0.99074012  0.93765461  0.56906896     0.13700
C977        C  0.04652381  0.87173565  0.53927080     0.03100
N978        N  0.10193146  0.82286225  0.59332494    -0.80600
H979        H  0.09970876  0.86439145  0.65769883     0.18500
C980        C  0.01329444  0.83945330  0.52673994    -0.25500
C981        C  0.01863714  0.81895931  0.49242890     0.36600
C982        C  0.06837154  0.83694608  0.96902985    -0.19500
C983        C  0.09811308  0.87465361  0.98079133    -0.24700
C984        C  0.08301532  0.88855462  0.51550634     0.27900
H985        H  0.98470622  0.82715585  0.54485623     0.13700
N986        N  0.98650060  0.78119246  0.48404023    -0.82000
H987        H  0.12640628  0.88828947  0.96301811     0.18500
N988        N  0.11655192  0.92383893  0.52667635    -0.80600
H989        H  0.98900242  0.75483179  0.50461395     0.34200
H990        H  0.96969487  0.79242990  0.98668465     0.38700
H991        H  0.11502372  0.96253463  0.00852699     0.34100
H992        H  0.13333058  0.91022833  0.54965902     0.30800
H993        H  0.13702984  0.83216434  0.59814304     0.34100
H994        H  0.09287837  0.79327096  0.61014334     0.30800
H995        H  0.99511081  0.00697009  0.61239077     0.38700
H996        H  0.95118714  0.97042369  0.62855268     0.34200
C997        C  0.09996613  0.83703554  0.90069827    -0.19600
C998        C  0.07941863  0.88147927  0.89043383     0.36700
C999        C  0.07990756  0.89642413  0.85380926    -0.25500
C1000       C  0.09916972  0.86757396  0.82650219     0.03100
C1001       C  0.12275118  0.82552865  0.83617998     0.27900
C1002       C  0.12291884  0.81049968  0.87277279    -0.24700
N1003       N  0.05454669  0.90998936  0.91634613    -0.82100
H1004       H  0.06255179  0.92968442  0.84640234     0.13700
C1005       C  0.09499259  0.88306620  0.78805039     0.03100
N1006       N  0.14581568  0.79768738  0.80871097    -0.80600
H1007       H  0.13753659  0.77547012  0.87873924     0.18500
C1008       C  0.11328803  0.92802605  0.77818678    -0.25500
C1009       C  0.10503406  0.94831530  0.74411323     0.36600
C1010       C  0.08041996  0.92193207  0.71720017    -0.19500
C1011       C  0.06256168  0.87585235  0.72730795    -0.24700
C1012       C  0.06952436  0.85642748  0.76251296     0.27900
H1013       H  0.13197806  0.94902101  0.79800780     0.13700
N1014       N  0.11900189  0.99753178  0.73790514    -0.82000
H1015       H  0.04049903  0.85617618  0.70891014     0.18500
N1016       N  0.04878229  0.81083753  0.77280006    -0.80600
H1017       H  0.15553951  0.00024361  0.74083272     0.34200
H1018       H  0.10277201  0.01848860  0.75782318     0.38700
H1019       H  0.01232091  0.81279970  0.76911024     0.34100
H1020       H  0.06212371  0.78502285  0.75510255     0.30800
H1021       H  0.18120113  0.79351596  0.81579427     0.34100
H1022       H  0.13006200  0.76375563  0.80854730     0.30800
H1023       H  0.01996201  0.91414500  0.90758888     0.38700
H1024       H  0.07097690  0.94380419  0.91661972     0.34200
C1025       C  0.34278271  0.66668686  0.97541149    -0.19600
C1026       C  0.36669114  0.68178563  0.50110427     0.36700
C1027       C  0.36752817  0.66426437  0.53686953    -0.25500
C1028       C  0.33951236  0.62550475  0.54803609     0.03100
C1029       C  0.31222429  0.60126917  0.52261231     0.27900
C1030       C  0.32132158  0.62199631  0.98534498    -0.24700
N1031       N  0.38851915  0.73820232  0.99588338    -0.82100
H1032       H  0.38948685  0.68213534  0.55645183     0.13700
C1033       C  0.33908531  0.61170100  0.58681167     0.03100
N1034       N  0.28553503  0.55939944  0.53374849    -0.80600
H1035       H  0.29944000  0.60326702  0.96627498     0.18500
C1036       C  0.30664374  0.63291410  0.61068256    -0.25500
C1037       C  0.30404118  0.61886101  0.64751371     0.36600
C1038       C  0.33439297  0.58243547  0.66094382    -0.19500
C1039       C  0.36962872  0.56475206  0.63673861    -0.24700
C1040       C  0.37243412  0.57962544  0.60025273     0.27900
H1041       H  0.28218811  0.65937741  0.60038507     0.13700
N1042       N  0.26839033  0.63921372  0.67065686    -0.82000
H1043       H  0.39299268  0.53617857  0.64487282     0.18500
N1044       N  0.40842746  0.56101492  0.57653649    -0.80600
H1045       H  0.27362618  0.67633452  0.67078404     0.34200
H1046       H  0.23514435  0.63197959  0.66002994     0.38700
H1047       H  0.44121445  0.56998589  0.58715507     0.34100
H1048       H  0.40525847  0.52346476  0.57674790     0.30800
H1049       H  0.25006880  0.56546598  0.52794917     0.34100
H1050       H  0.29724744  0.53085707  0.51806147     0.30800
H1051       H  0.36187341  0.76193753  0.98889941     0.38700
H1052       H  0.43086514  0.71081035  0.49620392     0.34200
C1053       C  0.30980290  0.66395237  0.90892534    -0.19600
C1054       C  0.33743553  0.62572328  0.89512677     0.36700
C1055       C  0.33160294  0.61067386  0.85930480    -0.25500
C1056       C  0.29863079  0.63261480  0.83671726     0.03100
C1057       C  0.26841514  0.66766295  0.85068990     0.27900
C1058       C  0.27432854  0.68320929  0.88613445    -0.24700
N1059       N  0.37268500  0.60320074  0.91685799    -0.82100
H1060       H  0.35411612  0.58267934  0.84862118     0.13700
C1061       C  0.29629924  0.61764512  0.79867887     0.03100
N1062       N  0.23207629  0.68869535  0.82917415    -0.80600
H1063       H  0.25281618  0.71314832  0.89453411     0.18500
C1064       C  0.27533144  0.57345056  0.79177000    -0.25500
C1065       C  0.27928377  0.55313412  0.75742612     0.36600
C1066       C  0.30330588  0.57826667  0.72832901    -0.19500
C1067       C  0.32349150  0.62374521  0.73568031    -0.24700
C1068       C  0.31958257  0.64390627  0.77041988     0.27900
H1069       H  0.25815423  0.55311434  0.81388350     0.13700
N1070       N  0.26257012  0.50485229  0.75324747    -0.82000
H1071       H  0.34478507  0.64244464  0.71499088     0.18500
N1072       N  0.34026239  0.69016425  0.77747044    -0.80600
H1073       H  0.28093981  0.48280167  0.77118581     0.34200
H1074       H  0.22698520  0.50346362  0.76136864     0.38700
H1075       H  0.36765300  0.68504994  0.79570255     0.34100
H1076       H  0.35521973  0.70543697  0.75359182     0.30800
H1077       H  0.24776326  0.70546158  0.80618323     0.34100
H1078       H  0.21009441  0.66099339  0.82044584     0.30800
H1079       H  0.36438624  0.56648979  0.91915388     0.38700
H1080       H  0.40538782  0.60653427  0.90342628     0.34200
C1081       C  0.11751595  0.65122087  0.59487402    -0.19600
C1082       C  0.13983985  0.68422319  0.61885867     0.36700
C1083       C  0.12074339  0.69203517  0.65354453    -0.25500
C1084       C  0.08032665  0.66750172  0.66565993     0.03100
C1085       C  0.05625656  0.63717438  0.64199278     0.27900
C1086       C  0.07564296  0.62801424  0.60742280    -0.24700
N1087       N  0.18341564  0.70830082  0.60917863    -0.82100
H1088       H  0.13914757  0.71550555  0.67189852     0.13700
C1089       C  0.06681088  0.66849119  0.70448674     0.03100
N1090       N  0.01347108  0.61343341  0.65397462    -0.80600
H1091       H  0.05892714  0.60103344  0.59099923     0.18500
C1092       C  0.02303840  0.68680902  0.71428246    -0.25500
C1093       C  0.00348589  0.67748368  0.74884768     0.36600
C1094       C  0.02967642  0.65210311  0.77587116    -0.19500
C1095       C  0.07499433  0.63555577  0.76578348    -0.24700
C1096       C  0.09375025  0.64402995  0.73051227     0.27900
H1097       H  0.00202632  0.70486618  0.69391326     0.13700
N1098       N  0.45353118  0.68111503  0.75774281    -0.82000
H1099       H  0.09474212  0.61325715  0.78437321     0.18500
N1100       N  0.13897010  0.62519025  0.72034127    -0.80600
H1101       H  0.45246725  0.71858884  0.75515404     0.34200
H1102       H  0.43193894  0.66658730  0.73786687     0.38700
H1103       H  0.16402462  0.63866753  0.73813905     0.34100
H1104       H  0.13758613  0.58794852  0.72367656     0.30800
H1105       H  0.98722143  0.62154314  0.63535391     0.34100
H1106       H  0.01936027  0.57644999  0.65368301     0.30800
H1107       H  0.17756314  0.74528990  0.61005482     0.38700
H1108       H  0.20845475  0.69971416  0.62859852     0.34200
C1109       C  0.03437178  0.61468157  0.84285775    -0.19600
C1110       C  0.07300625  0.64213307  0.85573979     0.36700
C1111       C  0.09100087  0.63294656  0.89061258    -0.25500
C1112       C  0.06876215  0.59990633  0.91479786     0.03100
C1113       C  0.02975199  0.57354095  0.90308437     0.27900
C1114       C  0.01383793  0.57997785  0.86745552    -0.24700
N1115       N  0.09128979  0.68245994  0.83506801    -0.82100
H1116       H  0.12010766  0.65476434  0.89998161     0.13700
C1117       C  0.08313663  0.59794220  0.95347611     0.03100
N1118       N  0.00451156  0.54194954  0.92800278    -0.80600
H1119       H  0.48157812  0.54957452  0.86470895     0.18500
C1120       C  0.05489530  0.61980984  0.98007873    -0.25500
C1121       C  0.07398352  0.63594647  0.51637938     0.36600
C1122       C  0.11509912  0.61234594  0.52923019    -0.19500
C1123       C  0.14235085  0.58380725  0.99906157    -0.24700
C1124       C  0.12636014  0.57823652  0.96345776     0.27900
H1125       H  0.02125987  0.63491451  0.97246721     0.13700
N1126       N  0.04998473  0.67074265  0.53806308    -0.82000
H1127       H  0.17778855  0.57180275  0.00464797     0.18500
N1128       N  0.15477395  0.55356595  0.93714959    -0.80600
H1129       H  0.01460624  0.66014383  0.54102426     0.34200
H1130       H  0.05114845  0.70377003  0.52396848     0.38700
H1131       H  0.18773706  0.57090286  0.93497580     0.34100
H1132       H  0.16002780  0.51862114  0.94703882     0.30800
H1133       H  0.53293255  0.50758746  0.94032574     0.34100
H1134       H  0.00349493  0.50785024  0.91660405     0.30800
H1135       H  0.08634970  0.71319640  0.85055609     0.38700
H1136       H  0.12756995  0.67769987  0.83106896     0.34200
C1137       C  0.64107845  0.12640252  0.05961439    -0.02200
C1138       C  0.82642359  0.19869965  0.43785373    -0.02200
C1139       C  0.57267675  0.30728485  0.43405261    -0.02200
O1140       O  0.74488885  0.20224587  0.45943720    -0.57500
C1141       C  0.61485150  0.27983253  0.45074123     0.75100
O1142       O  0.64361088  0.20704678  0.03490314    -0.58700
C1143       C  0.78294516  0.22576097  0.45339547     0.75100
C1144       C  0.72595514  0.33653412  0.04723119     0.77500
Cd1145     Cd  0.69800535  0.25625703  0.49690505     1.37500
O1146       O  0.65744920  0.29088599  0.44227549    -0.57500
O1147       O  0.69471137  0.34303519  0.51949142    -0.56300
C1148       C  0.66729152  0.17009808  0.04282579     0.77400
O1149       O  0.73663217  0.29304631  0.05329599    -0.58700
O1150       O  0.66047969  0.29331041  0.94680642    -0.57100
O1151       O  0.78764878  0.25551184  0.97791520    -0.57100
O1152       O  0.70934591  0.17422378  0.53138052    -0.56300
C1153       C  0.82151167  0.05199910  0.19010709    -0.02200
C1154       C  0.75452277  0.37822178  0.06400923    -0.02200
C1155       C  0.89713676  0.37094861  0.31269053    -0.02200
O1156       O  0.99294878  0.44622450  0.20886506    -0.57500
C1157       C  0.86515761  0.02617597  0.20613943     0.75100
O1158       O  0.89869652  0.45296948  0.29092437    -0.58700
C1159       C  0.53011460  0.47585451  0.19956668     0.75100
C1160       C  0.97734682  0.07469042  0.29970331     0.77500
Cd1161     Cd  0.94652782  0.99442377  0.25226330     1.37500
O1162       O  0.86680545  0.98269440  0.21668060    -0.57500
O1163       O  0.93507512  0.07391853  0.28915000    -0.56300
C1164       C  0.92295450  0.41612878  0.29783423     0.77400
O1165       O  0.00088987  0.03756098  0.29200525    -0.58700
O1166       O  0.90139285  0.05102730  0.21370406    -0.57100
O1167       O  0.53371336  0.51276203  0.21889038    -0.57100
O1168       O  0.96558069  0.41829297  0.28693127    -0.56300
C1169       C  0.57191338  0.44978591  0.18193623    -0.02200
O1170       O  0.73595654  0.03797102  0.18179398    -0.57500
C1171       C  0.61613006  0.47564739  0.16615570     0.75100
O1172       O  0.66124608  0.04152250  0.07077897    -0.58700
C1173       C  0.77792744  0.02436683  0.17507494     0.75100
C1174       C  0.72843680  0.42137085  0.08001267     0.77500
Cd1175     Cd  0.69437344  0.00286752  0.12700857     1.37500
O1176       O  0.61732247  0.51715214  0.15145183    -0.57500
O1177       O  0.69192008  0.41790375  0.10037878    -0.56300
C1178       C  0.66852114  0.08520148  0.07826404     0.77400
O1179       O  0.74882546  0.46220671  0.07956206    -0.58700
O1180       O  0.65400406  0.45191961  0.16323713    -0.57100
O1181       O  0.78108523  0.99594786  0.14867149    -0.57100
O1182       O  0.69195272  0.09129650  0.10677624    -0.56300
C1183       C  0.00391711  0.11921853  0.31400683    -0.02200
O1184       O  0.99933068  0.30712534  0.41096419    -0.57500
C1185       C  0.87058601  0.22473160  0.42134182     0.75100
O1186       O  0.89996100  0.28965428  0.33608349    -0.58700
C1187       C  0.53005222  0.28014459  0.41825726     0.75100
C1188       C  0.97752814  0.16265171  0.33018811     0.77500
Cd1189     Cd  0.95508327  0.24848326  0.37446139     1.37500
O1190       O  0.90965872  0.20276553  0.42051118    -0.57500
O1191       O  0.98884168  0.20552518  0.32091671    -0.56300
C1192       C  0.92387185  0.32668485  0.32660864     0.77400
O1193       O  0.95172174  0.15916031  0.35858944    -0.58700
O1194       O  0.86996803  0.26263418  0.40183626    -0.57100
O1195       O  0.52965848  0.23700723  0.40796746    -0.57100
O1196       O  0.96713888  0.32593078  0.33471434    -0.56300
C1197       C  0.87189333  0.35185666  0.27850500    -0.19600
C1198       C  0.82360303  0.33930384  0.27461285     0.36700
C1199       C  0.80480992  0.33934779  0.23933769    -0.25500
C1200       C  0.83462455  0.34143823  0.20794605     0.03100
C1201       C  0.88369838  0.33850507  0.21279564     0.27900
C1202       C  0.90164709  0.34438021  0.24757795    -0.24700
N1203       N  0.79551727  0.31823849  0.30388991    -0.82100
H1204       H  0.76689123  0.33682381  0.23683821     0.13700
C1205       C  0.81567292  0.34717664  0.17032142     0.03100
N1206       N  0.91520028  0.33050766  0.18226407    -0.80600
H1207       H  0.93966446  0.34536448  0.25038314     0.18500
C1208       C  0.83823226  0.37975418  0.14565805    -0.25500
C1209       C  0.82273012  0.38648420  0.10987821     0.36600
C1210       C  0.78231535  0.36110310  0.09777249    -0.19500
C1211       C  0.75908047  0.32971476  0.12337784    -0.24700
C1212       C  0.77588996  0.32160220  0.15858128     0.27900
H1213       H  0.86785581  0.40127764  0.15444002     0.13700
N1214       N  0.84729148  0.42073685  0.08657323    -0.82000
H1215       H  0.72581681  0.31276597  0.11698569     0.18500
N1216       N  0.75180039  0.28757846  0.18228473    -0.80600
H1217       H  0.84679571  0.45422616  0.09908055     0.34200
H1218       H  0.88251934  0.41014947  0.08411534     0.38700
H1219       H  0.71675050  0.29857467  0.18550522     0.34100
H1220       H  0.75147268  0.25440001  0.16945309     0.30800
H1221       H  0.95033868  0.32940160  0.19050960     0.34100
H1222       H  0.90722547  0.29657338  0.17215177     0.30800
H1223       H  0.81343989  0.31757840  0.32835097     0.38700
H1224       H  0.76395988  0.33682705  0.30695641     0.34200
C1225       C  0.87226485  0.38956680  0.34793279    -0.19600
C1226       C  0.82474645  0.40466431  0.35335289     0.36700
C1227       C  0.80659420  0.40771582  0.38935302    -0.25500
C1228       C  0.83672701  0.40554704  0.41944101     0.03100
C1229       C  0.88553309  0.40519406  0.41271799     0.27900
C1230       C  0.90267089  0.39705698  0.37760536    -0.24700
N1231       N  0.79763516  0.42621854  0.32487869    -0.82100
H1232       H  0.76914505  0.41355189  0.39361361     0.13700
C1233       C  0.81803399  0.40363561  0.45768052     0.03100
N1234       N  0.91786018  0.41348477  0.44150438    -0.80600
H1235       H  0.94058948  0.39506592  0.37367802     0.18500
C1236       C  0.83494194  0.36833103  0.48183729    -0.25500
C1237       C  0.82201277  0.36677323  0.01675197     0.36600
C1238       C  0.78463679  0.39520995  0.03049976    -0.19500
C1239       C  0.76431526  0.42977720  0.50555454    -0.24700
C1240       C  0.78367638  0.43566822  0.47027499     0.27900
H1241       H  0.86123647  0.34303360  0.47244120     0.13700
N1242       N  0.84218661  0.32948715  0.03870382    -0.82000
H1243       H  0.73571652  0.45209563  0.01481042     0.18500
N1244       N  0.76798129  0.47415686  0.44722289    -0.80600
H1245       H  0.83704955  0.29670524  0.02591477     0.34200
H1246       H  0.87856674  0.33591436  0.03989274     0.38700
H1247       H  0.73144975  0.47058507  0.44446210     0.34100
H1248       H  0.77469290  0.50658070  0.46019070     0.30800
H1249       H  0.94035996  0.38402969  0.44337582     0.34100
H1250       H  0.93837102  0.44387418  0.43437965     0.30800
H1251       H  0.81477003  0.42443177  0.29940355     0.38700
H1252       H  0.76455874  0.41005529  0.32396360     0.34200
C1253       C  0.55480942  0.42299270  0.14795231    -0.19600
C1254       C  0.52637439  0.44693994  0.12146869     0.36700
C1255       C  0.52427737  0.43028981  0.08588492    -0.25500
C1256       C  0.55094386  0.39135426  0.07500032     0.03100
C1257       C  0.57647245  0.36510301  0.10084342     0.27900
C1258       C  0.57877497  0.38123276  0.13678584    -0.24700
N1259       N  0.50132397  0.49001431  0.12943270    -0.82100
H1260       H  0.50348157  0.44961398  0.06604061     0.13700
C1261       C  0.55156169  0.37811010  0.03635861     0.03100
N1262       N  0.60126165  0.32277191  0.09029192    -0.80600
H1263       H  0.60228864  0.36290835  0.15515821     0.18500
C1264       C  0.51973513  0.34301581  0.02606279    -0.25500
C1265       C  0.52371313  0.32165646  0.99209414     0.36600
C1266       C  0.55681756  0.33896983  0.46652451    -0.19500
C1267       C  0.58756184  0.37615686  0.47760254    -0.24700
C1268       C  0.58513694  0.39673105  0.01061631     0.27900
H1269       H  0.49330851  0.32952357  0.04562660     0.13700
N1270       N  0.49255280  0.28249311  0.98543535    -0.82000
H1271       H  0.61725672  0.38712979  0.46017498     0.18500
N1272       N  0.61710965  0.43536481  0.01881967    -0.80600
H1273       H  0.49627482  0.25716526  0.00649643     0.34200
H1274       H  0.45351660  0.30037924  0.48480246     0.38700
H1275       H  0.63224326  0.42391068  0.54469821     0.34100
H1276       H  0.61067549  0.46368262  0.00059538     0.30800
H1277       H  0.63701148  0.32784993  0.09573213     0.34100
H1278       H  0.58853767  0.29406773  0.10663196     0.30800
H1279       H  0.51206445  0.51633074  0.11022344     0.38700
H1280       H  0.46534034  0.48328413  0.12574594     0.34200
C1281       C  0.58975230  0.33484438  0.39917169    -0.19600
C1282       C  0.56827952  0.37809924  0.38697038     0.36700
C1283       C  0.57003997  0.39097422  0.34988039    -0.25500
C1284       C  0.59372592  0.36256704  0.32440820     0.03100
C1285       C  0.61883687  0.32256115  0.33622750     0.27900
C1286       C  0.61539369  0.30802168  0.37283284    -0.24700
N1287       N  0.54307864  0.40837277  0.41156091    -0.82100
H1288       H  0.55206217  0.42314032  0.34077165     0.13700
C1289       C  0.59483767  0.37787458  0.28585230     0.03100
N1290       N  0.64813402  0.29695374  0.31104524    -0.80600
H1291       H  0.63065570  0.27369705  0.38004971     0.18500
C1292       C  0.61890001  0.42021472  0.27689892    -0.25500
C1293       C  0.61480372  0.44178739  0.24269937     0.36600
C1294       C  0.58772567  0.41936881  0.21512407    -0.19500
C1295       C  0.56525738  0.37497763  0.22418380    -0.24700
C1296       C  0.56894131  0.35403642  0.25920698     0.27900
H1297       H  0.63861390  0.43860616  0.29758744     0.13700
N1298       N  0.63522282  0.48875479  0.23737599    -0.82000
H1299       H  0.54199498  0.35813674  0.20508233     0.18500
N1300       N  0.54466209  0.30982230  0.26815217    -0.80600
H1301       H  0.67149773  0.48621219  0.24087475     0.34200
H1302       H  0.62145412  0.51115534  0.25758279     0.38700
H1303       H  0.55699672  0.28360780  0.25034060     0.34100
H1304       H  0.50874344  0.31458418  0.26349222     0.30800
H1305       H  0.63642159  0.26134677  0.31047179     0.34100
H1306       H  0.68258593  0.29714213  0.32077629     0.30800
H1307       H  0.50890760  0.41233354  0.40235247     0.38700
H1308       H  0.55933524  0.44238128  0.41057047     0.34200
C1309       C  0.84020048  0.16797046  0.47150376    -0.19600
C1310       C  0.87206487  0.17811739  0.99627409     0.36700
C1311       C  0.87531105  0.15522429  0.03025857    -0.25500
C1312       C  0.84346114  0.11929081  0.04116918     0.03100
C1313       C  0.80996842  0.10259400  0.01650056     0.27900
C1314       C  0.81051060  0.12882396  0.48254948    -0.24700
N1315       N  0.90381134  0.22535283  0.48975491    -0.82100
H1316       H  0.90093188  0.16819803  0.04940511     0.13700
C1317       C  0.84182147  0.10514630  0.08000593     0.03100
N1318       N  0.77765507  0.06443864  0.02643080    -0.80600
H1319       H  0.78430407  0.11552018  0.46408373     0.18500
C1320       C  0.81046004  0.12872229  0.10337005    -0.25500
C1321       C  0.80761261  0.11683131  0.14059542     0.36600
C1322       C  0.83729144  0.08080670  0.15545685    -0.19500
C1323       C  0.87074685  0.05947417  0.13143205    -0.24700
C1324       C  0.87293079  0.07120262  0.09416155     0.27900
H1325       H  0.78696787  0.15567304  0.09240153     0.13700
N1326       N  0.77230963  0.13929463  0.16276658    -0.82000
H1327       H  0.89284092  0.03035405  0.14063113     0.18500
N1328       N  0.90542958  0.04710225  0.07043411    -0.80600
H1329       H  0.77788682  0.17641615  0.16094318     0.34200
H1330       H  0.73914476  0.13159329  0.15245639     0.38700
H1331       H  0.93959964  0.05317655  0.07972312     0.34100
H1332       H  0.89840181  0.01017969  0.07244705     0.30800
H1333       H  0.79737437  0.03435129  0.03371717     0.34100
H1334       H  0.75809993  0.07478181  0.04937954     0.30800
H1335       H  0.89784948  0.25123892  0.50949034     0.38700
H1336       H  0.93733831  0.20524605  0.98955981     0.34200
C1337       C  0.81069821  0.16980717  0.40456298    -0.19600
C1338       C  0.83701714  0.13008398  0.39158763     0.36700
C1339       C  0.83323611  0.11619919  0.35521582    -0.25500
C1340       C  0.80308264  0.14023440  0.33130121     0.03100
C1341       C  0.77374567  0.17661126  0.34463894     0.27900
C1342       C  0.77840986  0.19157654  0.38040203    -0.24700
N1343       N  0.86869801  0.10460049  0.41478085    -0.82100
H1344       H  0.85462684  0.08681081  0.34537704     0.13700
C1345       C  0.80031788  0.12366369  0.29343631     0.03100
N1346       N  0.73867420  0.19887680  0.32257689    -0.80600
H1347       H  0.75804686  0.22252829  0.38838335     0.18500
C1348       C  0.78173467  0.07798737  0.28803219    -0.25500
C1349       C  0.78422731  0.05684304  0.25392590     0.36600
C1350       C  0.80603445  0.08155462  0.22359800    -0.19500
C1351       C  0.82391674  0.12854685  0.22933417    -0.24700
C1352       C  0.81967849  0.15021586  0.26363538     0.27900
H1353       H  0.76685436  0.05750445  0.31101318     0.13700
N1354       N  0.76802573  0.00818404  0.25108138    -0.82000
H1355       H  0.84326212  0.14778231  0.20781021     0.18500
N1356       N  0.83579435  0.19866130  0.26835345    -0.80600
H1357       H  0.78761664  0.98689803  0.26879287     0.34200
H1358       H  0.73283068  0.00664962  0.26011263     0.38700
H1359       H  0.87135252  0.20104104  0.26060553     0.34100
H1360       H  0.81723090  0.22092043  0.25059396     0.30800
H1361       H  0.75523273  0.21604280  0.30020459     0.34100
H1362       H  0.71621023  0.17201596  0.31309952     0.30800
H1363       H  0.85781695  0.06857130  0.41622720     0.38700
H1364       H  0.90254738  0.10584025  0.40287553     0.34200
C1365       C  0.60943579  0.14326417  0.09155513    -0.19600
C1366       C  0.62601412  0.17815107  0.11662179     0.36700
C1367       C  0.60229445  0.18452963  0.14974363    -0.25500
C1368       C  0.56504072  0.15437509  0.16056150     0.03100
C1369       C  0.54745037  0.12020525  0.13633032     0.27900
C1370       C  0.57000845  0.11452326  0.10250805    -0.24700
N1371       N  0.66975199  0.20385258  0.11073479    -0.82100
H1372       H  0.61625359  0.21007278  0.16883279     0.13700
C1373       C  0.55146711  0.15305002  0.19933049     0.03100
N1374       N  0.50874446  0.08881451  0.14634758    -0.80600
H1375       H  0.55838028  0.08546093  0.08550739     0.18500
C1376       C  0.50722243  0.16907683  0.21014874    -0.25500
C1377       C  0.49149275  0.16293960  0.24616880     0.36600
C1378       C  0.52149887  0.14218110  0.27299727    -0.19500
C1379       C  0.56687679  0.12745063  0.26152779    -0.24700
C1380       C  0.58208752  0.13332810  0.22512758     0.27900
H1381       H  0.48369249  0.18416142  0.19011486     0.13700
N1382       N  0.95521539  0.16990734  0.25584080    -0.82000
H1383       H  0.58958782  0.10850683  0.28014407     0.18500
N1384       N  0.62805886  0.11746376  0.21389631    -0.80600
H1385       H  0.95186740  0.20652096  0.24951923     0.34200
H1386       H  0.93512798  0.15043844  0.23749204     0.38700
H1387       H  0.65311138  0.13546725  0.22921043     0.34100
H1388       H  0.63041310  0.08072545  0.21982323     0.30800
H1389       H  0.51735133  0.06994505  0.17006796     0.34100
H1390       H  0.47904800  0.10967832  0.15190618     0.30800
H1391       H  0.66281970  0.24077579  0.11138235     0.38700
H1392       H  0.69200912  0.19570970  0.13215536     0.34200
C1393       C  0.53335887  0.10909108  0.34041778    -0.19600
C1394       C  0.56995757  0.14062968  0.35173078     0.36700
C1395       C  0.58809036  0.13637339  0.38708754    -0.25500
C1396       C  0.56889850  0.10294926  0.41245320     0.03100
C1397       C  0.53375798  0.07099536  0.40158328     0.27900
C1398       C  0.51716364  0.07343834  0.36598795    -0.24700
N1399       N  0.58619020  0.17958693  0.32861862    -0.82100
H1400       H  0.61501685  0.16155152  0.39554094     0.13700
C1401       C  0.58298429  0.10389764  0.45108604     0.03100
N1402       N  0.51259521  0.03778129  0.42747283    -0.80600
H1403       H  0.98676862  0.04604480  0.36455111     0.18500
C1404       C  0.55500866  0.12806844  0.47668590    -0.25500
C1405       C  0.57218493  0.12678335  0.01291180     0.36600
C1406       C  0.61564351  0.10780030  0.02546928    -0.19500
C1407       C  0.63755813  0.08412801  0.49875382    -0.24700
C1408       C  0.62391473  0.08091372  0.46245839     0.27900
H1409       H  0.52310811  0.14572659  0.46790449     0.13700
N1410       N  0.54392285  0.15768271  0.03499845    -0.82000
H1411       H  0.67155360  0.06933511  0.50534596     0.18500
N1412       N  0.65279775  0.05559150  0.43682903    -0.80600
H1413       H  0.50971050  0.14311892  0.03708362     0.34200
H1414       H  0.54213453  0.19107967  0.02172336     0.38700
H1415       H  0.68663225  0.07109360  0.43647783     0.34100
H1416       H  0.65555033  0.02002589  0.44619135     0.30800
H1417       H  0.03300411  0.01048339  0.44388023     0.34100
H1418       H  0.51543354  0.00331386  0.41683854     0.30800
H1419       H  0.57950882  0.21170613  0.34210969     0.38700
H1420       H  0.62270011  0.17633238  0.32490575     0.34200
C1421       C  0.63997695  0.12867639  0.55807164    -0.02200
C1422       C  0.82409567  0.19493513  0.93771934    -0.02200
C1423       C  0.57612817  0.30397433  0.93476531    -0.02200
O1424       O  0.74017388  0.21051850  0.94969957    -0.57500
C1425       C  0.61833924  0.27817345  0.95255113     0.75100
O1426       O  0.64148932  0.20748869  0.53031111    -0.58700
C1427       C  0.78259525  0.22403617  0.95390874     0.75100
C1428       C  0.72078365  0.33675322  0.54670410     0.77500
Cd1429     Cd  0.70012332  0.25432741  0.99961675     1.37500
O1430       O  0.61351383  0.24899199  0.97922416    -0.57500
O1431       O  0.69852274  0.34264789  0.02076483    -0.56300
C1432       C  0.66578480  0.17155710  0.53972452     0.77400
O1433       O  0.73162869  0.29328891  0.55274084    -0.58700
O1434       O  0.61032271  0.25328774  0.47893544    -0.57100
O1435       O  0.78230902  0.26847748  0.46461720    -0.57100
O1436       O  0.71037966  0.17164841  0.03294645    -0.56300
C1437       C  0.81809135  0.05590734  0.68858974    -0.02200
C1438       C  0.74871628  0.37859367  0.56359352    -0.02200
C1439       C  0.89356327  0.37828807  0.81269842    -0.02200
O1440       O  0.98567274  0.45376589  0.70983167    -0.57500
C1441       C  0.86245885  0.03204699  0.70468106     0.75100
O1442       O  0.89679035  0.46245513  0.79511424    -0.58700
C1443       C  0.52378507  0.46975907  0.70268544     0.75100
C1444       C  0.97673120  0.08442702  0.79676221     0.77500
Cd1445     Cd  0.94519392  0.00489342  0.74941836     1.37500
O1446       O  0.86744210  0.98800053  0.71265655    -0.57500
O1447       O  0.93621917  0.08626866  0.78290820    -0.56300
C1448       C  0.91995133  0.42391523  0.79834674     0.77400
O1449       O  0.99890629  0.04583349  0.79100243    -0.58700
O1450       O  0.89606077  0.05918306  0.71436072    -0.57100
O1451       O  0.52831009  0.50304843  0.72530599    -0.57100
O1452       O  0.96094545  0.42508400  0.78387817    -0.56300
C1453       C  0.56553273  0.44423587  0.68429516    -0.02200
O1454       O  0.73392924  0.03844145  0.67792005    -0.57500
C1455       C  0.60900505  0.47153135  0.66841463     0.75100
O1456       O  0.65651499  0.04299798  0.56964578    -0.58700
C1457       C  0.77671303  0.02761785  0.67117164     0.75100
C1458       C  0.72133436  0.42154103  0.57907470     0.77500
Cd1459     Cd  0.69461938  0.00288113  0.62319432     1.37500
O1460       O  0.60867279  0.51264637  0.65313224    -0.57500
O1461       O  0.68742906  0.41656177  0.60193210    -0.56300
C1462       C  0.66770407  0.08641172  0.57537121     0.77400
O1463       O  0.73896690  0.46365955  0.57682195    -0.58700
O1464       O  0.64764114  0.44917493  0.66545169    -0.57100
O1465       O  0.78215528  0.00147932  0.64357035    -0.57100
O1466       O  0.69564721  0.09172569  0.60146762    -0.56300
C1467       C  0.00339765  0.12772675  0.81257962    -0.02200
O1468       O  0.99626241  0.30756721  0.91001613    -0.57500
C1469       C  0.86774261  0.22143762  0.92099441     0.75100
O1470       O  0.89456611  0.29655436  0.83659460    -0.58700
C1471       C  0.53373105  0.27577040  0.91950996     0.75100
C1472       C  0.97574672  0.16952925  0.82933627     0.77500
Cd1473     Cd  0.95014027  0.25212088  0.87410685     1.37500
O1474       O  0.90532121  0.19812716  0.91544556    -0.57500
O1475       O  0.98726047  0.21289101  0.82198602    -0.56300
C1476       C  0.91918452  0.33305764  0.82679945     0.77400
O1477       O  0.94695281  0.16391359  0.85579402    -0.58700
O1478       O  0.86819287  0.26372223  0.90760336    -0.57100
O1479       O  0.53337297  0.23207382  0.91056158    -0.57100
O1480       O  0.96242961  0.33088625  0.83463075    -0.56300
C1481       C  0.86751813  0.35999353  0.77855178    -0.19600
C1482       C  0.81966351  0.34467625  0.77540865     0.36700
C1483       C  0.80001790  0.34273718  0.74036762    -0.25500
C1484       C  0.82881644  0.34665746  0.70848556     0.03100
C1485       C  0.87805025  0.34735806  0.71273677     0.27900
C1486       C  0.89659124  0.35402338  0.74710589    -0.24700
N1487       N  0.79286057  0.32347482  0.80533446    -0.82100
H1488       H  0.76227342  0.33748377  0.73847800     0.13700
C1489       C  0.80893946  0.35124199  0.67098705     0.03100
N1490       N  0.90964374  0.34141258  0.68212531    -0.80600
H1491       H  0.93467502  0.35600469  0.74891872     0.18500
C1492       C  0.82954796  0.38514603  0.64641967    -0.25500
C1493       C  0.81421052  0.39065162  0.61055608     0.36600
C1494       C  0.77588920  0.36264432  0.59800455    -0.19500
C1495       C  0.75376751  0.33037014  0.62358890    -0.24700
C1496       C  0.77030296  0.32377593  0.65918368     0.27900
H1497       H  0.85737640  0.40889752  0.65537776     0.13700
N1498       N  0.83615672  0.42701715  0.58764796    -0.82000
H1499       H  0.72150925  0.31176432  0.61691203     0.18500
N1500       N  0.74686152  0.28974623  0.68324404    -0.80600
H1501       H  0.83235774  0.46013768  0.60034053     0.34200
H1502       H  0.87220705  0.41965206  0.58546662     0.38700
H1503       H  0.71152066  0.30002969  0.68620527     0.34100
H1504       H  0.74722557  0.25640996  0.67079504     0.30800
H1505       H  0.93183116  0.37168938  0.67996160     0.34100
H1506       H  0.93069264  0.31150670  0.68739919     0.30800
H1507       H  0.81073685  0.32497280  0.82975107     0.38700
H1508       H  0.76034419  0.34043493  0.80803513     0.34200
C1509       C  0.86944396  0.39713434  0.84797188    -0.19600
C1510       C  0.82185177  0.41127825  0.85416466     0.36700
C1511       C  0.80492222  0.41442506  0.89034782    -0.25500
C1512       C  0.83629786  0.41307473  0.91961380     0.03100
C1513       C  0.88484080  0.41395617  0.91203112     0.27900
C1514       C  0.90084365  0.40577006  0.87676152    -0.24700
N1515       N  0.79324130  0.43115895  0.82600431    -0.82100
H1516       H  0.76742609  0.41901426  0.89536584     0.13700
C1517       C  0.81918618  0.40915773  0.95788472     0.03100
N1518       N  0.91794509  0.42247963  0.94024998    -0.80600
H1519       H  0.93857929  0.40419948  0.87193077     0.18500
C1520       C  0.83825886  0.37354086  0.98074212    -0.25500
C1521       C  0.81703978  0.36344624  0.51766515     0.36600
C1522       C  0.78041755  0.39392531  0.53024926    -0.19500
C1523       C  0.76628885  0.43134713  0.00698578    -0.24700
C1524       C  0.78401126  0.43925311  0.97161983     0.27900
H1525       H  0.86517370  0.34968234  0.97024514     0.13700
N1526       N  0.83405944  0.32528669  0.54043178    -0.82000
H1527       H  0.73432695  0.45189691  0.51235184     0.18500
N1528       N  0.76525934  0.47717781  0.94944778    -0.80600
H1529       H  0.82764639  0.29267191  0.52765296     0.34200
H1530       H  0.87058902  0.32971851  0.54273557     0.38700
H1531       H  0.72881984  0.47148080  0.94751031     0.34100
H1532       H  0.77054414  0.50975184  0.96249902     0.30800
H1533       H  0.94073060  0.39317459  0.94172023     0.34100
H1534       H  0.93795952  0.45302142  0.93284436     0.30800
H1535       H  0.81007626  0.42930508  0.80060608     0.38700
H1536       H  0.76072539  0.41336500  0.82573109     0.34200
C1537       C  0.54852728  0.41933142  0.64958783    -0.19600
C1538       C  0.52245029  0.44619099  0.62320085     0.36700
C1539       C  0.52110803  0.43173550  0.58698179    -0.25500
C1540       C  0.54673929  0.39236247  0.57538203     0.03100
C1541       C  0.57105429  0.36410959  0.60101614     0.27900
C1542       C  0.57194968  0.37775418  0.63750175    -0.24700
N1543       N  0.50010727  0.49056153  0.63205934    -0.82100
H1544       H  0.50183602  0.45304321  0.56734327     0.13700
C1545       C  0.54715297  0.38026139  0.53647601     0.03100
N1546       N  0.59668621  0.32232510  0.59033387    -0.80600
H1547       H  0.59454891  0.35786748  0.65563622     0.18500
C1548       C  0.51432330  0.34679429  0.52511842    -0.25500
C1549       C  0.51918728  0.32529169  0.49119989     0.36600
C1550       C  0.55957418  0.33669338  0.96633924    -0.19500
C1551       C  0.58912106  0.37544548  0.97627217    -0.24700
C1552       C  0.58255768  0.39727226  0.51183095     0.27900
H1553       H  0.48664518  0.33423186  0.54397328     0.13700
N1554       N  0.48767063  0.28668277  0.48394504    -0.82000
H1555       H  0.61757187  0.38735395  0.95796311     0.18500
N1556       N  0.61472029  0.43478258  0.52136863    -0.80600
H1557       H  0.49113809  0.26119377  0.50503369     0.34200
H1558       H  0.45825996  0.29601854  0.98657317     0.38700
H1559       H  0.61048977  0.44867797  0.04485932     0.34100
H1560       H  0.59496211  0.46533510  0.52761701     0.30800
H1561       H  0.57305553  0.29808636  0.57885190     0.34100
H1562       H  0.62180333  0.33262716  0.57039324     0.30800
H1563       H  0.51414712  0.51736903  0.61457464     0.38700
H1564       H  0.46410553  0.48709428  0.62681932     0.34200
C1565       C  0.59379706  0.32956598  0.89918399    -0.19600
C1566       C  0.57167810  0.37125894  0.88494580     0.36700
C1567       C  0.57484455  0.38202887  0.84756453    -0.25500
C1568       C  0.59908606  0.35215672  0.82336067     0.03100
C1569       C  0.62372101  0.31253500  0.83707763     0.27900
C1570       C  0.62049361  0.30137251  0.87430257    -0.24700
N1571       N  0.54350016  0.40142932  0.90763763    -0.82100
H1572       H  0.55675073  0.41340886  0.83708732     0.13700
C1573       C  0.59999531  0.36599512  0.78436233     0.03100
N1574       N  0.65162134  0.28267162  0.81381847    -0.80600
H1575       H  0.63619595  0.26794557  0.88324798     0.18500
C1576       C  0.62248256  0.40916465  0.77517145    -0.25500
C1577       C  0.61163889  0.43390601  0.74328716     0.36600
C1578       C  0.58286466  0.41253150  0.71645210    -0.19500
C1579       C  0.56241010  0.36707993  0.72510525    -0.24700
C1580       C  0.57031093  0.34408759  0.75903014     0.27900
H1581       H  0.64402079  0.42690406  0.79510903     0.13700
N1582       N  0.62652394  0.48299657  0.73995045    -0.82000
H1583       H  0.53738350  0.35108860  0.70690809     0.18500
N1584       N  0.54586765  0.30019366  0.76859420    -0.80600
H1585       H  0.66338783  0.48336318  0.73781768     0.34200
H1586       H  0.61590408  0.50114452  0.76327650     0.38700
H1587       H  0.55492744  0.27457715  0.74916251     0.34100
H1588       H  0.50967613  0.30627928  0.76698446     0.30800
H1589       H  0.62989199  0.26804567  0.79422967     0.34100
H1590       H  0.67737140  0.30427609  0.80049777     0.30800
H1591       H  0.50958005  0.40257528  0.89715828     0.38700
H1592       H  0.55779284  0.43620667  0.90580815     0.34200
C1593       C  0.83751261  0.16320551  0.97101099    -0.19600
C1594       C  0.87314535  0.18520290  0.49731686     0.36700
C1595       C  0.87499604  0.16442001  0.53193752    -0.25500
C1596       C  0.84261547  0.12933866  0.54314229     0.03100
C1597       C  0.81071673  0.11016051  0.51838575     0.27900
C1598       C  0.80711497  0.12454770  0.98193760    -0.24700
N1599       N  0.90280254  0.21820318  0.98885599    -0.82100
H1600       H  0.89979838  0.17854870  0.55126937     0.13700
C1601       C  0.84093825  0.11604579  0.58183747     0.03100
N1602       N  0.77727640  0.07363963  0.53028551    -0.80600
H1603       H  0.77918975  0.11308248  0.96424762     0.18500
C1604       C  0.80707002  0.13686335  0.60467180    -0.25500
C1605       C  0.80339033  0.12335666  0.64152774     0.36600
C1606       C  0.83427513  0.08829098  0.65605049    -0.19500
C1607       C  0.87131189  0.07161479  0.63296073    -0.24700
C1608       C  0.87461346  0.08516953  0.59625592     0.27900
H1609       H  0.78234543  0.16249317  0.59354694     0.13700
N1610       N  0.76632391  0.14299974  0.66357913    -0.82000
H1611       H  0.89555205  0.04431765  0.64205164     0.18500
N1612       N  0.91082264  0.06565061  0.57315636    -0.80600
H1613       H  0.77079589  0.18027382  0.66329073     0.34200
H1614       H  0.73390372  0.13486958  0.65215187     0.38700
H1615       H  0.94361791  0.07531101  0.58358985     0.34100
H1616       H  0.90780579  0.02818713  0.57432100     0.30800
H1617       H  0.75593939  0.06366179  0.50878147     0.34100
H1618       H  0.79631549  0.04309743  0.53773061     0.30800
H1619       H  0.89836633  0.24291921  0.00966859     0.38700
H1620       H  0.93842332  0.21297908  0.49213858     0.34200
C1621       C  0.80719436  0.16662100  0.90435102    -0.19600
C1622       C  0.82953587  0.12386069  0.89237981     0.36700
C1623       C  0.82147182  0.10683818  0.85724043    -0.25500
C1624       C  0.79275012  0.13204848  0.83299273     0.03100
C1625       C  0.76952644  0.17332070  0.84461750     0.27900
C1626       C  0.77792434  0.19092691  0.87924968    -0.24700
N1627       N  0.86293414  0.09924680  0.91458879    -0.82100
H1628       H  0.84000426  0.07516297  0.84809789     0.13700
C1629       C  0.79103894  0.11717286  0.79462236     0.03100
N1630       N  0.73816168  0.19824172  0.82088766    -0.80600
H1631       H  0.76312809  0.22562039  0.88551169     0.18500
C1632       C  0.77444005  0.07122830  0.78690870    -0.25500
C1633       C  0.77855779  0.05311914  0.75174975     0.36600
C1634       C  0.79955206  0.08150706  0.72290876    -0.19500
C1635       C  0.81542529  0.12832920  0.73110176    -0.24700
C1636       C  0.81046181  0.14650634  0.76634177     0.27900
H1637       H  0.76018663  0.04828369  0.80875444     0.13700
N1638       N  0.76576307  0.00384941  0.74626440    -0.82000
H1639       H  0.83481370  0.14988530  0.71089640     0.18500
N1640       N  0.82759723  0.19388110  0.77381218    -0.80600
H1641       H  0.78690267  0.98236545  0.76267869     0.34200
H1642       H  0.73076295  0.99876790  0.75509644     0.38700
H1643       H  0.86355506  0.19565475  0.76690086     0.34100
H1644       H  0.81007107  0.21826755  0.75699583     0.30800
H1645       H  0.70533776  0.20027079  0.83431135     0.34100
H1646       H  0.75093482  0.23334095  0.81689522     0.30800
H1647       H  0.85118012  0.06377019  0.91855645     0.38700
H1648       H  0.89535342  0.09847167  0.90037088     0.34200
C1649       C  0.61198594  0.14734378  0.59157820    -0.19600
C1650       C  0.63247850  0.18156167  0.61566482     0.36700
C1651       C  0.61431647  0.18657496  0.65106469    -0.25500
C1652       C  0.57634115  0.15857572  0.66364363     0.03100
C1653       C  0.55344654  0.12760937  0.63989995     0.27900
C1654       C  0.57224997  0.12076273  0.60476341    -0.24700
N1655       N  0.67359735  0.20958026  0.60552426    -0.82100
H1656       H  0.63170013  0.21070946  0.66951101     0.13700
C1657       C  0.56431221  0.15676205  0.70280532     0.03100
N1658       N  0.51279489  0.10071439  0.65250419    -0.80600
H1659       H  0.55701123  0.09288161  0.58833760     0.18500
C1660       C  0.52073249  0.17418807  0.71416625    -0.25500
C1661       C  0.50277659  0.16349236  0.74900816     0.36600
C1662       C  0.53055549  0.13805956  0.77489052    -0.19500
C1663       C  0.57517043  0.12137742  0.76306110    -0.24700
C1664       C  0.59232436  0.13064977  0.72735021     0.27900
H1665       H  0.49867674  0.19284420  0.69480315     0.13700
N1666       N  0.95695238  0.18675621  0.75621854    -0.82000
H1667       H  0.59544743  0.09851128  0.78088758     0.18500
N1668       N  0.63702336  0.11174054  0.71531988    -0.80600
H1669       H  0.95518935  0.22395169  0.75172306     0.34200
H1670       H  0.93629018  0.17003305  0.73675867     0.38700
H1671       H  0.65355600  0.09375238  0.73668312     0.34100
H1672       H  0.63037868  0.08610269  0.69550610     0.30800
H1673       H  0.48541731  0.10678445  0.63439867     0.34100
H1674       H  0.52150763  0.06444278  0.65211698     0.30800
H1675       H  0.66492190  0.24592575  0.60741608     0.38700
H1676       H  0.70014784  0.20242983  0.62406726     0.34200
C1677       C  0.53945597  0.10174114  0.84148985    -0.19600
C1678       C  0.57789788  0.13088240  0.85282564     0.36700
C1679       C  0.59574463  0.12525118  0.88805531    -0.25500
C1680       C  0.57409960  0.09360862  0.91351598     0.03100
C1681       C  0.53657319  0.06438760  0.90287991     0.27900
C1682       C  0.52066860  0.06741417  0.86709816    -0.24700
N1683       N  0.59649674  0.16901886  0.82991163    -0.82100
H1684       H  0.62417097  0.14866128  0.89651162     0.13700
C1685       C  0.58757267  0.09530846  0.95215469     0.03100
N1686       N  0.51238019  0.03382118  0.92912829    -0.80600
H1687       H  0.98345028  0.05376484  0.86165546     0.18500
C1688       C  0.55815884  0.11888900  0.97702887    -0.25500
C1689       C  0.56893001  0.13230214  0.51313803     0.36600
C1690       C  0.61145742  0.11046140  0.52507411    -0.19500
C1691       C  0.64420014  0.08313223  0.99975515    -0.24700
C1692       C  0.63086448  0.07715095  0.96354384     0.27900
H1693       H  0.52532069  0.13419509  0.96779199     0.13700
N1694       N  0.54124703  0.16164404  0.53685186    -0.82000
H1695       H  0.67926870  0.07183334  0.00707566     0.18500
N1696       N  0.66222617  0.05490580  0.93773545    -0.80600
H1697       H  0.50684522  0.14761439  0.53815970     0.34200
H1698       H  0.53997237  0.19627429  0.52536385     0.38700
H1699       H  0.69385982  0.04564462  0.95001900     0.34100
H1700       H  0.64620259  0.02286717  0.92971961     0.30800
H1701       H  0.97138029  0.04069102  0.93095542     0.34100
H1702       H  0.51238507  0.99898079  0.91925504     0.30800
H1703       H  0.59283392  0.20137023  0.84368448     0.38700
H1704       H  0.63248394  0.16283043  0.82548712     0.34200
C1705       C  0.64773757  0.62674916  0.05786442    -0.02200
C1706       C  0.82240101  0.68881690  0.43864549    -0.02200
C1707       C  0.57632158  0.80034319  0.43419224    -0.02200
O1708       O  0.74185342  0.69616595  0.46051515    -0.57500
C1709       C  0.61891898  0.77320214  0.44995968     0.75100
O1710       O  0.64787115  0.70585384  0.03109099    -0.58700
C1711       C  0.78091968  0.71775874  0.45468832     0.75100
C1712       C  0.72338412  0.83824584  0.04636010     0.77500
Cd1713     Cd  0.69901215  0.75104015  0.49891780     1.37500
O1714       O  0.61449755  0.74159694  0.47499339    -0.57500
O1715       O  0.69332735  0.83737338  0.52344551    -0.56300
C1716       C  0.67262819  0.66971499  0.03908532     0.77400
O1717       O  0.73115715  0.79457509  0.05435096    -0.58700
O1718       O  0.61501392  0.74747817  0.97725058    -0.57100
O1719       O  0.78974492  0.76043221  0.97703268    -0.57100
O1720       O  0.70881040  0.67015912  0.53401128    -0.56300
C1721       C  0.82359065  0.55231466  0.19169211    -0.02200
C1722       C  0.75034260  0.87994652  0.06484515    -0.02200
C1723       C  0.89302376  0.86356110  0.31316188    -0.02200
O1724       O  0.98796118  0.94922278  0.20413615    -0.57500
C1725       C  0.86838912  0.52826446  0.20699926     0.75100
O1726       O  0.89700898  0.94809292  0.29554378    -0.58700
C1727       C  0.52163175  0.97030537  0.19961989     0.75100
C1728       C  0.98491451  0.57622149  0.29703288     0.77500
Cd1729     Cd  0.95117874  0.49801093  0.25082884     1.37500
O1730       O  0.87523012  0.48371784  0.21147799    -0.57500
O1731       O  0.94097319  0.57232115  0.29200947    -0.56300
C1732       C  0.91916403  0.90881176  0.29773893     0.77400
O1733       O  0.00981087  0.54250134  0.28450499    -0.58700
O1734       O  0.90096021  0.55508469  0.21878056    -0.57100
O1735       O  0.52581928  0.00614722  0.21997593    -0.57100
O1736       O  0.95900358  0.90916179  0.28154618    -0.56300
C1737       C  0.56396569  0.94325542  0.18341113    -0.02200
O1738       O  0.74011170  0.53433595  0.18037163    -0.57500
C1739       C  0.60766123  0.96970270  0.16698668     0.75100
O1740       O  0.66364755  0.54191613  0.07119951    -0.58700
C1741       C  0.78301868  0.52434181  0.17339356     0.75100
C1742       C  0.72256412  0.92283796  0.07986861     0.77500
Cd1743     Cd  0.70204154  0.50390838  0.12439679     1.37500
O1744       O  0.60876011  0.01230362  0.15428076    -0.57500
O1745       O  0.68624301  0.91813193  0.10041045    -0.56300
C1746       C  0.67593921  0.58533379  0.07537672     0.77400
O1747       O  0.74181538  0.96423313  0.07993986    -0.58700
O1748       O  0.64577717  0.94662784  0.16314034    -0.57100
O1749       O  0.78910627  0.50013884  0.14489477    -0.57100
O1750       O  0.70513190  0.59159122  0.10051208    -0.56300
C1751       C  0.00996422  0.62055937  0.31209759    -0.02200
O1752       O  0.99668162  0.79863394  0.40994365    -0.57500
C1753       C  0.86689736  0.71371837  0.42195908     0.75100
O1754       O  0.89505244  0.78261790  0.33826683    -0.58700
C1755       C  0.53250592  0.77422506  0.41892037     0.75100
C1756       C  0.98032598  0.66005027  0.33002857     0.77500
Cd1757     Cd  0.95134455  0.74049512  0.37605096     1.37500
O1758       O  0.90509743  0.69048598  0.41959235    -0.57500
O1759       O  0.98745534  0.70403271  0.32185494    -0.56300
C1760       C  0.91934191  0.81895574  0.32757798     0.77400
O1761       O  0.95486835  0.65239122  0.35823463    -0.58700
O1762       O  0.86743116  0.75376303  0.40510895    -0.57100
O1763       O  0.53179573  0.73239881  0.40594736    -0.57100
O1764       O  0.96275850  0.81760213  0.33520254    -0.56300
C1765       C  0.86624610  0.84405264  0.27978281    -0.19600
C1766       C  0.81752882  0.83228770  0.27704361     0.36700
C1767       C  0.79715461  0.83279862  0.24221323    -0.25500
C1768       C  0.82579740  0.83482219  0.21017814     0.03100
C1769       C  0.87483237  0.82985682  0.21414395     0.27900
C1770       C  0.89447333  0.83505759  0.24839808    -0.24700
N1771       N  0.79048575  0.81176693  0.30706948    -0.82100
H1772       H  0.75908523  0.83101272  0.24057627     0.13700
C1773       C  0.80627345  0.84388065  0.17295237     0.03100
N1774       N  0.90496506  0.82015513  0.18331994    -0.80600
H1775       H  0.93261218  0.83437569  0.25012398     0.18500
C1776       C  0.83003966  0.87701182  0.14941280    -0.25500
C1777       C  0.81516283  0.88642867  0.11378230     0.36600
C1778       C  0.77479239  0.86252094  0.10023357    -0.19500
C1779       C  0.74925817  0.83188547  0.12512768    -0.24700
C1780       C  0.76500107  0.82150355  0.16047506     0.27900
H1781       H  0.86029917  0.89687862  0.15900924     0.13700
N1782       N  0.84048607  0.92185683  0.09208160    -0.82000
H1783       H  0.71547224  0.81706524  0.11777353     0.18500
N1784       N  0.73860879  0.78832694  0.18341841    -0.80600
H1785       H  0.84025593  0.95427714  0.10592052     0.34200
H1786       H  0.87564272  0.91089805  0.08942740     0.38700
H1787       H  0.70430469  0.80136183  0.18656562     0.34100
H1788       H  0.73654804  0.75552175  0.17004975     0.30800
H1789       H  0.93046231  0.84756756  0.18089262     0.34100
H1790       H  0.92241594  0.78786996  0.18855357     0.30800
H1791       H  0.80936516  0.81074524  0.33085129     0.38700
H1792       H  0.75938632  0.83134552  0.31104847     0.34200
C1793       C  0.86907020  0.88275176  0.34855383    -0.19600
C1794       C  0.82198529  0.89883661  0.35421204     0.36700
C1795       C  0.80434186  0.90239936  0.39024981    -0.25500
C1796       C  0.83471014  0.89952981  0.42020206     0.03100
C1797       C  0.88348420  0.89788763  0.41319048     0.27900
C1798       C  0.90000031  0.88991210  0.37792769    -0.24700
N1799       N  0.79509184  0.92062015  0.32572452    -0.82100
H1800       H  0.76698218  0.90864826  0.39455230     0.13700
C1801       C  0.81628364  0.89796331  0.45852957     0.03100
N1802       N  0.91646360  0.90409388  0.44186229    -0.80600
H1803       H  0.93780770  0.88726521  0.37369509     0.18500
C1804       C  0.83423171  0.86363963  0.48308658    -0.25500
C1805       C  0.82166204  0.86620605  0.02128249     0.36600
C1806       C  0.78446049  0.89645759  0.03313781    -0.19500
C1807       C  0.76208805  0.92337647  0.50620262    -0.24700
C1808       C  0.78081505  0.92900705  0.47080757     0.27900
H1809       H  0.86071604  0.83844175  0.47388845     0.13700
N1810       N  0.83741520  0.82766825  0.04426579    -0.82000
H1811       H  0.74184880  0.95751754  0.01543023     0.18500
N1812       N  0.76309983  0.96611045  0.44737576    -0.80600
H1813       H  0.83123372  0.79511351  0.03143015     0.34200
H1814       H  0.87380442  0.83167370  0.04752793     0.38700
H1815       H  0.72674000  0.96061617  0.44487351     0.34100
H1816       H  0.76828015  0.99914647  0.45992649     0.30800
H1817       H  0.93780442  0.87364751  0.44310423     0.34100
H1818       H  0.93808059  0.93376311  0.43508931     0.30800
H1819       H  0.81172083  0.91800041  0.30051776     0.38700
H1820       H  0.76125954  0.90496883  0.32514182     0.34200
C1821       C  0.54824693  0.91315159  0.15067901    -0.19600
C1822       C  0.52170857  0.93531140  0.12235977     0.36700
C1823       C  0.52163888  0.91608229  0.08751506    -0.25500
C1824       C  0.54786672  0.87562060  0.07932242     0.03100
C1825       C  0.57120949  0.85083551  0.10715971     0.27900
C1826       C  0.57225273  0.87017817  0.14219635    -0.24700
N1827       N  0.49738326  0.97961211  0.12770109    -0.82100
H1828       H  0.50288681  0.93459414  0.06605454     0.13700
C1829       C  0.55195931  0.86150188  0.04094433     0.03100
N1830       N  0.59570060  0.80725430  0.09952960    -0.80600
H1831       H  0.59522404  0.85335790  0.16171985     0.18500
C1832       C  0.52044466  0.82766166  0.02810236    -0.25500
C1833       C  0.52271879  0.81325296  0.99184542     0.36600
C1834       C  0.56205330  0.83076834  0.46745354    -0.19500
C1835       C  0.59089838  0.87034383  0.47698795    -0.24700
C1836       C  0.58417010  0.88446376  0.01655078     0.27900
H1837       H  0.49373621  0.81201992  0.04647786     0.13700
N1838       N  0.48785451  0.77960542  0.98058838    -0.82000
H1839       H  0.61811094  0.88377782  0.45814310     0.18500
N1840       N  0.61284387  0.92359667  0.02852215    -0.80600
H1841       H  0.48819763  0.74937409  0.99797909     0.34200
H1842       H  0.46342762  0.78691452  0.48874473     0.38700
H1843       H  0.59357096  0.96087416  0.52573862     0.34100
H1844       H  0.60499176  0.95398082  0.01260813     0.30800
H1845       H  0.63113183  0.81245038  0.10599512     0.34100
H1846       H  0.58170525  0.78020783  0.11684555     0.30800
H1847       H  0.51103786  0.00503939  0.10883328     0.38700
H1848       H  0.46173348  0.97396978  0.12208804     0.34200
C1849       C  0.59240243  0.82920788  0.39988692    -0.19600
C1850       C  0.56800017  0.87099673  0.38832750     0.36700
C1851       C  0.57067081  0.88614271  0.35189384    -0.25500
C1852       C  0.59592710  0.85990201  0.32606776     0.03100
C1853       C  0.62217217  0.82016784  0.33690394     0.27900
C1854       C  0.62000488  0.80478978  0.37337448    -0.24700
N1855       N  0.53734424  0.89618585  0.41264687    -0.82100
H1856       H  0.55065466  0.91726872  0.34330819     0.13700
C1857       C  0.59424668  0.87535748  0.28778497     0.03100
N1858       N  0.65040068  0.79511730  0.31069247    -0.80600
H1859       H  0.63739714  0.77143281  0.38024325     0.18500
C1860       C  0.61309767  0.92026689  0.27863879    -0.25500
C1861       C  0.60598432  0.94095422  0.24454419     0.36600
C1862       C  0.58023627  0.91574345  0.21770183    -0.19500
C1863       C  0.56113747  0.87004145  0.22755980    -0.24700
C1864       C  0.56914333  0.84922164  0.26197946     0.27900
H1865       H  0.63150342  0.94072298  0.29893347     0.13700
N1866       N  0.62237857  0.98933479  0.23833662    -0.82000
H1867       H  0.53796246  0.85128020  0.20944226     0.18500
N1868       N  0.55026778  0.80245847  0.27117787    -0.80600
H1869       H  0.65898144  0.98982629  0.24089053     0.34200
H1870       H  0.60769524  0.01099498  0.25857051     0.38700
H1871       H  0.51364022  0.80315699  0.26801759     0.34100
H1872       H  0.56430140  0.77810042  0.25261631     0.30800
H1873       H  0.68500098  0.79421659  0.31990474     0.34100
H1874       H  0.63802702  0.75973724  0.30945036     0.30800
H1875       H  0.50385760  0.89704435  0.40163122     0.38700
H1876       H  0.55019174  0.93155835  0.41408856     0.34200
C1877       C  0.83513104  0.65799821  0.47211199    -0.19600
C1878       C  0.87417781  0.68884111  0.00030999     0.36700
C1879       C  0.87532087  0.66969553  0.03580597    -0.25500
C1880       C  0.84567257  0.63225353  0.04701034     0.03100
C1881       C  0.81664924  0.61016804  0.02162860     0.27900
C1882       C  0.80674110  0.61734301  0.48195427    -0.24700
N1883       N  0.89521377  0.71765115  0.49159769    -0.82100
H1884       H  0.89812915  0.68574678  0.05569434     0.13700
C1885       C  0.84490021  0.61804689  0.08595049     0.03100
N1886       N  0.78885356  0.56893114  0.03250376    -0.80600
H1887       H  0.78191312  0.60273041  0.46294926     0.18500
C1888       C  0.81034205  0.63669250  0.10944819    -0.25500
C1889       C  0.80703516  0.62158333  0.14614343     0.36600
C1890       C  0.83892686  0.58682828  0.15991570    -0.19500
C1891       C  0.87660445  0.57264770  0.13644611    -0.24700
C1892       C  0.87972060  0.58803151  0.10000165     0.27900
H1893       H  0.78475084  0.66179275  0.09889195     0.13700
N1894       N  0.76924186  0.63900818  0.16868460    -0.82000
H1895       H  0.90180904  0.54595989  0.14497728     0.18500
N1896       N  0.91721754  0.57129569  0.07681757    -0.80600
H1897       H  0.77220560  0.67646224  0.16946348     0.34200
H1898       H  0.73710714  0.63006151  0.15708387     0.38700
H1899       H  0.94928496  0.58155973  0.08809387     0.34100
H1900       H  0.91568557  0.53369255  0.07683461     0.30800
H1901       H  0.75365628  0.57608507  0.02681071     0.34100
H1902       H  0.79974579  0.54011811  0.01664277     0.30800
H1903       H  0.88842135  0.74360588  0.51107878     0.38700
H1904       H  0.92536292  0.73689725  0.01387426     0.34200
C1905       C  0.80471947  0.65995754  0.40615571    -0.19600
C1906       C  0.82829375  0.61821555  0.39361748     0.36700
C1907       C  0.81875483  0.60051729  0.35908804    -0.25500
C1908       C  0.78806649  0.62471153  0.33586053     0.03100
C1909       C  0.76394826  0.66517673  0.34795725     0.27900
C1910       C  0.77213652  0.68227749  0.38267751    -0.24700
N1911       N  0.86419202  0.59546122  0.41460159    -0.82100
H1912       H  0.83826119  0.56980389  0.34925626     0.13700
C1913       C  0.78775403  0.61138968  0.29738707     0.03100
N1914       N  0.73332203  0.69088030  0.32416133    -0.80600
H1915       H  0.75519805  0.71560935  0.38988354     0.18500
C1916       C  0.77018174  0.56640526  0.28837226    -0.25500
C1917       C  0.77906756  0.54753368  0.25386154     0.36600
C1918       C  0.80382416  0.57599147  0.22650686    -0.19500
C1919       C  0.82002486  0.62217599  0.23607672    -0.24700
C1920       C  0.81205386  0.63989273  0.27107995     0.27900
H1921       H  0.75242222  0.54448765  0.30931607     0.13700
N1922       N  0.76542020  0.49843135  0.24747655    -0.82000
H1923       H  0.84174951  0.64349307  0.21715994     0.18500
N1924       N  0.83128294  0.68566629  0.28071286    -0.80600
H1925       H  0.79602995  0.47811222  0.24492364     0.34200
H1926       H  0.74661663  0.48366872  0.26989964     0.38700
H1927       H  0.86786763  0.68456491  0.27724260     0.34100
H1928       H  0.81831293  0.71179063  0.26276556     0.30800
H1929       H  0.70082852  0.69450853  0.33781926     0.34100
H1930       H  0.74735026  0.72543072  0.32005774     0.30800
H1931       H  0.85427438  0.55956082  0.41920117     0.38700
H1932       H  0.89568123  0.59589048  0.39910546     0.34200
C1933       C  0.62017391  0.64572434  0.09149318    -0.19600
C1934       C  0.64117387  0.67984252  0.11532610     0.36700
C1935       C  0.62175394  0.68729370  0.15010094    -0.25500
C1936       C  0.58213686  0.66147368  0.16246485     0.03100
C1937       C  0.55960395  0.62972944  0.13905435     0.27900
C1938       C  0.57953152  0.62059620  0.10455311    -0.24700
N1939       N  0.68403813  0.70516746  0.10554713    -0.82100
H1940       H  0.63925174  0.71169005  0.16827864     0.13700
C1941       C  0.56797793  0.66225680  0.20141095     0.03100
N1942       N  0.51814044  0.60423546  0.15163968    -0.80600
H1943       H  0.56401864  0.59258768  0.08840738     0.18500
C1944       C  0.52449931  0.68149472  0.21122383    -0.25500
C1945       C  0.50495992  0.67363839  0.24616536     0.36600
C1946       C  0.52988230  0.64649998  0.27306033    -0.19500
C1947       C  0.57422176  0.62775986  0.26254346    -0.24700
C1948       C  0.59391746  0.63684123  0.22753774     0.27900
H1949       H  0.50412524  0.70034665  0.19086635     0.13700
N1950       N  0.95514646  0.67040015  0.25622853    -0.82000
H1951       H  0.59291851  0.60428029  0.28099217     0.18500
N1952       N  0.63949764  0.61844259  0.21790898    -0.80600
H1953       H  0.94796291  0.70677253  0.25145815     0.34200
H1954       H  0.93635238  0.65029143  0.23748249     0.38700
H1955       H  0.66391006  0.63189659  0.23614736     0.34100
H1956       H  0.63832270  0.58105699  0.22095253     0.30800
H1957       H  0.49229235  0.60729314  0.13184376     0.34100
H1958       H  0.52718348  0.56829593  0.15506581     0.30800
H1959       H  0.67725224  0.74207748  0.10635773     0.38700
H1960       H  0.70928444  0.69740764  0.12485135     0.34200
C1961       C  0.53284212  0.61131621  0.34167658    -0.19600
C1962       C  0.57288969  0.63732460  0.35354592     0.36700
C1963       C  0.58931546  0.63082155  0.38929475    -0.25500
C1964       C  0.56473539  0.60141096  0.41490426     0.03100
C1965       C  0.52487959  0.57583920  0.40390136     0.27900
C1966       C  0.50954522  0.58068814  0.36800862    -0.24700
N1967       N  0.59476217  0.67342438  0.33059088    -0.82100
H1968       H  0.61961796  0.65155411  0.39783519     0.13700
C1969       C  0.57921614  0.60017422  0.45366484     0.03100
N1970       N  0.49905737  0.54565443  0.42949952    -0.80600
H1971       H  0.00372116  0.53949798  0.35813840     0.18500
C1972       C  0.55096754  0.62186104  0.48045318    -0.25500
C1973       C  0.57624998  0.62971255  0.01368147     0.36600
C1974       C  0.61849164  0.60744617  0.02561339    -0.19500
C1975       C  0.63695813  0.58255113  0.49982968    -0.24700
C1976       C  0.62189068  0.57932361  0.46377028     0.27900
H1977       H  0.51782130  0.63802655  0.47282004     0.13700
N1978       N  0.55173860  0.66356560  0.03588429    -0.82000
H1979       H  0.67196956  0.56948860  0.50564641     0.18500
N1980       N  0.65085312  0.55600960  0.43708020    -0.80600
H1981       H  0.51681410  0.65155802  0.03956603     0.34200
H1982       H  0.55119495  0.69656639  0.02182143     0.38700
H1983       H  0.68382751  0.57320398  0.43595487     0.34100
H1984       H  0.65570713  0.52042209  0.44589483     0.30800
H1985       H  0.04819301  0.50985968  0.44102503     0.34100
H1986       H  0.49771093  0.51096434  0.41905141     0.30800
H1987       H  0.59377342  0.70582547  0.34439304     0.38700
H1988       H  0.63000984  0.66374529  0.32631427     0.34200
C1989       C  0.63890686  0.62554910  0.56012065    -0.02200
C1990       C  0.82897923  0.69852588  0.93952742    -0.02200
C1991       C  0.57613652  0.80299085  0.93383719    -0.02200
O1992       O  0.74464047  0.71201138  0.94964190    -0.57500
C1993       C  0.61894031  0.77665808  0.95051777     0.75100
O1994       O  0.64109647  0.70408657  0.53210353    -0.58700
C1995       C  0.78641743  0.72727971  0.95417053     0.75100
C1996       C  0.72163606  0.83189171  0.54940003     0.77500
Cd1997     Cd  0.70192005  0.75565297  0.99735784     1.37500
O1998       O  0.66089086  0.79204234  0.94421842    -0.57500
O1999       O  0.70091474  0.84416425  0.01717302    -0.56300
C2000       C  0.66505156  0.66802752  0.54183195     0.77400
O2001       O  0.73491709  0.78887527  0.55419339    -0.58700
O2002       O  0.66055053  0.79041512  0.44578905    -0.57100
O2003       O  0.78323882  0.75975003  0.46722928    -0.57100
O2004       O  0.71576600  0.67259150  0.02949317    -0.56300
C2005       C  0.81732907  0.55320239  0.69115750    -0.02200
C2006       C  0.74947207  0.87458210  0.56551532    -0.02200
C2007       C  0.89553364  0.87745908  0.81440575    -0.02200
O2008       O  0.98492712  0.95165850  0.70818371    -0.57500
C2009       C  0.86147925  0.52824636  0.70641478     0.75100
O2010       O  0.89324968  0.95797115  0.78934648    -0.58700
C2011       C  0.52277885  0.96844279  0.69978559     0.75100
C2012       C  0.97736672  0.58917220  0.79522160     0.77500
Cd2013     Cd  0.94508103  0.50709335  0.75133975     1.37500
O2014       O  0.86006714  0.49288655  0.72845512    -0.57500
O2015       O  0.93438417  0.58791655  0.78645602    -0.56300
C2016       C  0.91933376  0.92290161  0.79780879     0.77400
O2017       O  0.00102241  0.55259005  0.78657906    -0.58700
O2018       O  0.90125614  0.54977812  0.70401272    -0.57100
O2019       O  0.52159337  0.01114071  0.71094269    -0.57100
O2020       O  0.96202615  0.92682786  0.78732710    -0.56300
C2021       C  0.56599196  0.94434257  0.68238658    -0.02200
O2022       O  0.73319330  0.54202357  0.67890034    -0.57500
C2023       C  0.60871506  0.97294275  0.66592049     0.75100
O2024       O  0.65600048  0.54048390  0.57193683    -0.58700
C2025       C  0.77461847  0.52537694  0.67560496     0.75100
C2026       C  0.72220995  0.91817450  0.58014478     0.77500
Cd2027     Cd  0.69390910  0.50244100  0.62606707     1.37500
O2028       O  0.60581447  0.00687618  0.64267726    -0.57500
O2029       O  0.68891961  0.91450044  0.60359092    -0.56300
C2030       C  0.66691417  0.58398407  0.57745617     0.77400
O2031       O  0.73897387  0.96038834  0.57566474    -0.58700
O2032       O  0.65016838  0.95716484  0.67020257    -0.57100
O2033       O  0.77875667  0.49393806  0.65131426    -0.57100
O2034       O  0.69481973  0.59012016  0.60351373    -0.56300
C2035       C  0.00385719  0.63257128  0.81069037    -0.02200
O2036       O  0.00249153  0.80881672  0.91246816    -0.57500
C2037       C  0.87263917  0.72461997  0.92272988     0.75100
O2038       O  0.89797588  0.79795110  0.84097864    -0.58700
C2039       C  0.53383632  0.77664255  0.91691031     0.75100
C2040       C  0.97714661  0.67397512  0.82856718     0.77500
Cd2041     Cd  0.95485458  0.75433501  0.87611101     1.37500
O2042       O  0.91039336  0.70123944  0.91802612    -0.57500
O2043       O  0.98915055  0.71733081  0.82178036    -0.56300
C2044       C  0.92229482  0.83348026  0.82892863     0.77400
O2045       O  0.94989450  0.66769610  0.85593457    -0.58700
O2046       O  0.87310680  0.76664607  0.90888365    -0.57100
O2047       O  0.53134975  0.73252561  0.90932428    -0.57100
O2048       O  0.96607737  0.83166176  0.83510918    -0.56300
C2049       C  0.86976727  0.85687312  0.78088475    -0.19600
C2050       C  0.82170683  0.84390674  0.77804780     0.36700
C2051       C  0.80143561  0.84320838  0.74301643    -0.25500
C2052       C  0.83019552  0.84579734  0.71095394     0.03100
C2053       C  0.87945430  0.84390732  0.71506588     0.27900
C2054       C  0.89853364  0.84932741  0.74947671    -0.24700
N2055       N  0.79517027  0.82745909  0.80963071    -0.82100
H2056       H  0.76344341  0.84046964  0.74110085     0.13700
C2057       C  0.81018567  0.85049322  0.67339269     0.03100
N2058       N  0.91048088  0.83705113  0.68425699    -0.80600
H2059       H  0.93666182  0.85091761  0.75128390     0.18500
C2060       C  0.83144744  0.88311592  0.64805252    -0.25500
C2061       C  0.81616313  0.88748034  0.61195760     0.36600
C2062       C  0.77714879  0.85972892  0.60007981    -0.19500
C2063       C  0.75498082  0.82836494  0.62625563    -0.24700
C2064       C  0.77139036  0.82296393  0.66201349     0.27900
H2065       H  0.86009122  0.90625590  0.65643303     0.13700
N2066       N  0.83976011  0.92142725  0.58782236    -0.82000
H2067       H  0.72296103  0.80922780  0.61970537     0.18500
N2068       N  0.74794499  0.78964654  0.68664927    -0.80600
H2069       H  0.83792544  0.95550642  0.59926136     0.34200
H2070       H  0.87538878  0.91203277  0.58586805     0.38700
H2071       H  0.71261100  0.79974940  0.68924774     0.34100
H2072       H  0.74870526  0.75568147  0.67495283     0.30800
H2073       H  0.93412544  0.86621052  0.68237006     0.34100
H2074       H  0.93000919  0.80596985  0.68905934     0.30800
H2075       H  0.76069048  0.81816584  0.80238233     0.38700
H2076       H  0.81063106  0.79585610  0.81898660     0.34200
C2077       C  0.87287866  0.89688940  0.85027707    -0.19600
C2078       C  0.82488906  0.90771181  0.85846905     0.36700
C2079       C  0.81016639  0.91061381  0.89525281    -0.25500
C2080       C  0.84292845  0.90983532  0.92363217     0.03100
C2081       C  0.89110877  0.91081851  0.91466670     0.27900
C2082       C  0.90553747  0.90586735  0.87841375    -0.24700
N2083       N  0.79284396  0.92486223  0.83155830    -0.82100
H2084       H  0.77290609  0.91483976  0.90159410     0.13700
C2085       C  0.82652515  0.90874962  0.96235956     0.03100
N2086       N  0.92548259  0.91626885  0.94239959    -0.80600
H2087       H  0.94320435  0.90557114  0.87250654     0.18500
C2088       C  0.84173263  0.87220445  0.98611631    -0.25500
C2089       C  0.81734937  0.85969959  0.51922677     0.36600
C2090       C  0.78019075  0.88948981  0.53160793    -0.19500
C2091       C  0.77148362  0.93465746  0.00922965    -0.24700
C2092       C  0.79354356  0.94194935  0.97504642     0.27900
H2093       H  0.86792383  0.84681708  0.97677686     0.13700
N2094       N  0.83567357  0.82284266  0.54252267    -0.82000
H2095       H  0.73100094  0.94412528  0.51258308     0.18500
N2096       N  0.78129713  0.98236805  0.95256033    -0.80600
H2097       H  0.82831772  0.78970401  0.53104352     0.34200
H2098       H  0.87241820  0.82736700  0.54351511     0.38700
H2099       H  0.74506598  0.98082485  0.94828741     0.34100
H2100       H  0.78899956  0.01382663  0.96655996     0.30800
H2101       H  0.94775064  0.88645529  0.94180729     0.34100
H2102       H  0.94569753  0.94698514  0.93610285     0.30800
H2103       H  0.80867228  0.92604799  0.80569087     0.38700
H2104       H  0.76265144  0.90306802  0.83174940     0.34200
C2105       C  0.55019299  0.91597753  0.64897888    -0.19600
C2106       C  0.52222587  0.93901161  0.62180424     0.36700
C2107       C  0.52426961  0.92398532  0.58571192    -0.25500
C2108       C  0.55313593  0.88631300  0.57555907     0.03100
C2109       C  0.57705939  0.86002080  0.60222695     0.27900
C2110       C  0.57641589  0.87544263  0.63834923    -0.24700
N2111       N  0.49375813  0.97984652  0.62981191    -0.82100
H2112       H  0.50409785  0.94285866  0.56524123     0.13700
C2113       C  0.55455892  0.87159720  0.53740225     0.03100
N2114       N  0.60339117  0.81844085  0.59234013    -0.80600
H2115       H  0.59975636  0.85780758  0.65718333     0.18500
C2116       C  0.52484067  0.83420639  0.52809414    -0.25500
C2117       C  0.52830594  0.81350017  0.49397108     0.36600
C2118       C  0.55862716  0.83194918  0.96726750    -0.19500
C2119       C  0.58818456  0.86883310  0.98041681    -0.24700
C2120       C  0.58656744  0.89152824  0.51122600     0.27900
H2121       H  0.49983522  0.81935721  0.54820795     0.13700
N2122       N  0.49774813  0.77388678  0.48722624    -0.82000
H2123       H  0.61627658  0.88378689  0.96306387     0.18500
N2124       N  0.61565516  0.93231936  0.51902464    -0.80600
H2125       H  0.50172970  0.74835908  0.50817339     0.34200
H2126       H  0.45529410  0.79662167  0.98293359     0.38700
H2127       H  0.64821017  0.91546319  0.02355564     0.34100
H2128       H  0.63577886  0.92387321  0.54173159     0.30800
H2129       H  0.63838376  0.82413654  0.59972095     0.34100
H2130       H  0.58975938  0.78917185  0.60762477     0.30800
H2131       H  0.50426528  0.00774979  0.61188033     0.38700
H2132       H  0.45867882  0.97093895  0.62431929     0.34200
C2133       C  0.59440241  0.83111357  0.89950861    -0.19600
C2134       C  0.57512527  0.87537901  0.88764684     0.36700
C2135       C  0.57960738  0.88982218  0.85089992    -0.25500
C2136       C  0.60237937  0.86093294  0.82510071     0.03100
C2137       C  0.62457823  0.81889438  0.83672727     0.27900
C2138       C  0.61982445  0.80399058  0.87321158    -0.24700
N2139       N  0.54860338  0.90469231  0.91199894    -0.82100
H2140       H  0.56296197  0.92288491  0.84209217     0.13700
C2141       C  0.60136806  0.87561873  0.78617732     0.03100
N2142       N  0.65152886  0.79096267  0.81149141    -0.80600
H2143       H  0.63347631  0.76889780  0.88038478     0.18500
C2144       C  0.61811245  0.92142958  0.77683289    -0.25500
C2145       C  0.60778163  0.94270993  0.74341998     0.36600
C2146       C  0.58407623  0.91625064  0.71614285    -0.19500
C2147       C  0.56842523  0.86909175  0.72548918    -0.24700
C2148       C  0.57686297  0.84875546  0.76021630     0.27900
H2149       H  0.63574840  0.94273951  0.79702261     0.13700
N2150       N  0.61762578  0.99313018  0.73859494    -0.82000
H2151       H  0.54649028  0.84924836  0.70711501     0.18500
N2152       N  0.55779082  0.80221376  0.76985575    -0.80600
H2153       H  0.65381231  0.99877536  0.74106744     0.34200
H2154       H  0.60019537  0.01158052  0.75943736     0.38700
H2155       H  0.52117226  0.80315769  0.76686155     0.34100
H2156       H  0.57149712  0.77744766  0.75141772     0.30800
H2157       H  0.68554930  0.78746140  0.82159048     0.34100
H2158       H  0.63644256  0.75657442  0.81071078     0.30800
H2159       H  0.51530736  0.91008637  0.90103416     0.38700
H2160       H  0.56592612  0.93796563  0.91294371     0.34200
C2161       C  0.84273626  0.66922520  0.97420008    -0.19600
C2162       C  0.86519868  0.67704119  0.49894043     0.36700
C2163       C  0.86547721  0.65700159  0.53374078    -0.25500
C2164       C  0.83545532  0.61918226  0.54337896     0.03100
C2165       C  0.80697359  0.59770321  0.51723079     0.27900
C2166       C  0.81463231  0.62907855  0.98576189    -0.24700
N2167       N  0.90380336  0.72973708  0.99188622    -0.82100
H2168       H  0.88788357  0.67278655  0.55404343     0.13700
C2169       C  0.83358769  0.60505394  0.58167404     0.03100
N2170       N  0.77698010  0.55727666  0.52619226    -0.80600
H2171       H  0.78928848  0.61378383  0.96746018     0.18500
C2172       C  0.80481424  0.63069872  0.60566008    -0.25500
C2173       C  0.80409205  0.61979489  0.64298723     0.36600
C2174       C  0.83259247  0.58214981  0.65671687    -0.19500
C2175       C  0.86377384  0.55918749  0.63176358    -0.24700
C2176       C  0.86498474  0.57107491  0.59484649     0.27900
H2177       H  0.78222966  0.65882361  0.59523451     0.13700
N2178       N  0.77234882  0.64513041  0.66641210    -0.82000
H2179       H  0.88468626  0.52871077  0.63996485     0.18500
N2180       N  0.89777344  0.54826253  0.57055686    -0.80600
H2181       H  0.78098106  0.68167815  0.66413771     0.34200
H2182       H  0.73797426  0.64012868  0.65735973     0.38700
H2183       H  0.93191683  0.55575274  0.57929434     0.34100
H2184       H  0.89233640  0.51110555  0.57244290     0.30800
H2185       H  0.79816749  0.52926228  0.53551972     0.34100
H2186       H  0.75419635  0.56687582  0.54749736     0.30800
H2187       H  0.88215323  0.75965332  0.98907846     0.38700
H2188       H  0.92971860  0.70557027  0.49482641     0.34200
C2189       C  0.81277913  0.66980580  0.90606396    -0.19600
C2190       C  0.83545809  0.62722467  0.89436583     0.36700
C2191       C  0.82915208  0.61089540  0.85876695    -0.25500
C2192       C  0.80163012  0.63655433  0.83394693     0.03100
C2193       C  0.77757026  0.67759099  0.84533398     0.27900
C2194       C  0.78467344  0.69457164  0.88019111    -0.24700
N2195       N  0.86760011  0.60222221  0.91736456    -0.82100
H2196       H  0.84775583  0.57914017  0.84987563     0.13700
C2197       C  0.80016196  0.62097851  0.79583490     0.03100
N2198       N  0.74631947  0.70323338  0.82184533    -0.80600
H2199       H  0.76981899  0.72935518  0.88611255     0.18500
C2200       C  0.77621210  0.57841680  0.78886936    -0.25500
C2201       C  0.77756618  0.55845611  0.75428082     0.36600
C2202       C  0.80198759  0.58228803  0.72473454    -0.19500
C2203       C  0.82553192  0.62599286  0.73216515    -0.24700
C2204       C  0.82499233  0.64548250  0.76714040     0.27900
H2205       H  0.75816566  0.55901912  0.81106714     0.13700
N2206       N  0.75796273  0.51133361  0.75044133    -0.82000
H2207       H  0.84784906  0.64326707  0.71137207     0.18500
N2208       N  0.85294998  0.68799616  0.77294585    -0.80600
H2209       H  0.77761521  0.48772400  0.76614540     0.34200
H2210       H  0.72404259  0.51172836  0.76219099     0.38700
H2211       H  0.83735637  0.71668186  0.75890324     0.34100
H2212       H  0.85411408  0.69704115  0.80026046     0.30800
H2213       H  0.76506362  0.71535790  0.79864757     0.34100
H2214       H  0.71984700  0.67941526  0.81379088     0.30800
H2215       H  0.85560517  0.56668980  0.92061145     0.38700
H2216       H  0.90060126  0.60161642  0.90403091     0.34200
C2217       C  0.61105997  0.64421773  0.59378367    -0.19600
C2218       C  0.63066261  0.67974344  0.61725842     0.36700
C2219       C  0.61199288  0.68571714  0.65246841    -0.25500
C2220       C  0.57511376  0.65664531  0.66578082     0.03100
C2221       C  0.55390387  0.62317732  0.64279786     0.27900
C2222       C  0.57286782  0.61613308  0.60789200    -0.24700
N2223       N  0.67193349  0.70750703  0.60702473    -0.82100
H2224       H  0.62843483  0.71128618  0.67032519     0.13700
C2225       C  0.56291916  0.65644160  0.70495440     0.03100
N2226       N  0.51425276  0.59436465  0.65500068    -0.80600
H2227       H  0.55893845  0.58694141  0.59210416     0.18500
C2228       C  0.52077369  0.67708433  0.71621030    -0.25500
C2229       C  0.50103417  0.66605398  0.75052260     0.36600
C2230       C  0.52617747  0.63723109  0.77625395    -0.19500
C2231       C  0.56962781  0.61768597  0.76456762    -0.24700
C2232       C  0.58808189  0.62739754  0.72930870     0.27900
H2233       H  0.50072661  0.69820675  0.69694216     0.13700
N2234       N  0.95508507  0.69007846  0.75509570    -0.82000
H2235       H  0.58818700  0.59289359  0.78211821     0.18500
N2236       N  0.63086799  0.60519163  0.71716957    -0.80600
H2237       H  0.95189057  0.72717865  0.75085539     0.34200
H2238       H  0.93477744  0.67276006  0.73569273     0.38700
H2239       H  0.65742018  0.61311938  0.73560929     0.34100
H2240       H  0.62523115  0.56822697  0.71750146     0.30800
H2241       H  0.52355183  0.57515818  0.67837064     0.34100
H2242       H  0.48636124  0.61722138  0.66173545     0.30800
H2243       H  0.66357539  0.74381365  0.60841486     0.38700
H2244       H  0.69830703  0.70068851  0.62587403     0.34200
C2245       C  0.53321017  0.60265651  0.84381429    -0.19600
C2246       C  0.57240421  0.63095760  0.85476313     0.36700
C2247       C  0.59103407  0.62466458  0.88971309    -0.25500
C2248       C  0.57006938  0.59265615  0.91526951     0.03100
C2249       C  0.53150429  0.56425869  0.90506243     0.27900
C2250       C  0.51379828  0.56923509  0.87000043    -0.24700
N2251       N  0.59077035  0.66930042  0.83194879    -0.82100
H2252       H  0.62003186  0.64755561  0.89784530     0.13700
C2253       C  0.58521736  0.59383549  0.95359227     0.03100
N2254       N  0.50805687  0.53178799  0.93043581    -0.80600
H2255       H  0.98202093  0.56062349  0.86051969     0.18500
C2256       C  0.55983301  0.62181635  0.97838678    -0.25500
C2257       C  0.56609371  0.62573041  0.51666583     0.36600
C2258       C  0.61048033  0.60682847  0.52710523    -0.19500
C2259       C  0.64266911  0.57810251  0.00004514    -0.24700
C2260       C  0.62659598  0.57111942  0.96480791     0.27900
H2261       H  0.52834960  0.64016166  0.96951159     0.13700
N2262       N  0.53746311  0.65183238  0.54178077    -0.82000
H2263       H  0.67672069  0.56315596  0.00623038     0.18500
N2264       N  0.65404115  0.54226369  0.94046551    -0.80600
H2265       H  0.50354361  0.63682837  0.54248295     0.34200
H2266       H  0.53562393  0.68738826  0.53225652     0.38700
H2267       H  0.63253368  0.51446738  0.93134502     0.34100
H2268       H  0.66483738  0.56361908  0.91796687     0.30800
H2269       H  0.96975806  0.55411727  0.93042032     0.34100
H2270       H  0.49490416  0.55150413  0.95233406     0.30800
H2271       H  0.58684225  0.70139606  0.84602985     0.38700
H2272       H  0.62688513  0.66360019  0.82756278     0.34200
loop_ 
_geom_bond_atom_site_label_1 
_geom_bond_atom_site_label_2 
_geom_bond_distance 
_geom_bond_site_symmetry_2 
_ccdc_geom_bond_type 
C1           C12   1.533       .  S
C1           C42   1.550       .  S
C1          C229   1.542       .  S
C1          C270   1.558       .  S
C2            C7   1.541       .  S
C2           C49   1.541       .  S
C2          C173   1.546       .  S
C2          C201   1.546       .  S
C3            C5   1.542       .  S
C3           C51   1.550       .  S
C3          C130   1.557       .  S
C3          C145   1.546       .  S
O4            C7   1.267       .  A
O4           Cd9   2.428       .  S
C5           O10   1.270       .  A
C5          O298   1.264       .  A
O6           C12   1.268       .  A
O6         Cd293   2.419   1_554  S
C7          O299   1.265       .  A
C8           C18   1.553       .  S
C8           O13   1.267       .  A
C8          O295   1.265       .  A
Cd9          O16   2.597       .  S
Cd9          O10   2.463       .  S
Cd9          O11   2.568       .  S
Cd9         O290   2.393       .  S
Cd9         O299   2.612       .  S
Cd9         O298   2.571       .  S
Cd9         O297   2.500       .  S
O11         C292   1.265       .  A
C12         O300   1.265       .  A
O13        Cd293   2.536   1_554  S
O14         C289   1.271       .  A
O14        Cd293   2.525       .  S
O15         C291   1.266       .  A
O15        Cd293   2.658       .  S
O16         C296   1.265       .  A
C17          C21   1.537       .  S
C17          C37   1.549       .  S
C17         C186   1.546       .  S
C17         C214   1.546       .  S
C18          C38   1.532       .  S
C18          C74   1.557       .  S
C18         C102   1.548       .  S
C19          C28   1.538       .  S
C19          C56   1.542       .  S
C19          C61   1.564       .  S
C19          C89   1.558       .  S
O20        C1159   1.267       .  A
O20        Cd593   2.433       .  S
C21          O30   1.268       .  A
C21          O26   1.263   1_545  A
O22          C28   1.265       .  A
O22        Cd593   2.414       .  S
C23          C33   1.531       .  S
C23          O31   1.263       .  A
C23        O1156   1.268   1_455  A
C24          C47   1.542       .  S
C24          O29   1.267       .  A
C24          O27   1.266       .  A
Cd25         O30   2.406   1_565  S
Cd25         O26   2.603       .  S
Cd25         O29   2.433   1_565  S
Cd25         O27   2.621   1_565  S
Cd25        O588   2.471       .  S
Cd25        O590   2.404       .  S
Cd25        O600   2.599       .  S
Cd25       O1735   2.555   1_565  S
C28          O32   1.265       .  A
O31       Cd1729   2.594   1_455  S
O32        Cd593   2.624       .  S
C33          C35   1.537       .  S
C33         C117   1.551       .  S
C33         C158   1.547       .  S
O34          C37   1.269       .  A
O34         Cd39   2.531       .  S
C35          O44   1.266       .  A
C35          O40   1.266       .  A
O36          C42   1.267       .  A
O36         Cd39   2.488       .  S
C37          O45   1.264   1_545  A
C38          O43   1.270       .  A
C38          O41   1.265       .  A
Cd39         O46   2.596       .  S
Cd39         O45   2.571   1_545  S
Cd39        O612   2.405   1_545  S
Cd39        O608   2.628       .  S
Cd39        O611   2.450   1_545  S
Cd39        O609   2.587   1_545  S
O40        Cd607   2.622       .  S
O41        Cd607   2.560       .  S
C42          O46   1.265       .  A
O43        Cd607   2.422       .  S
O44        Cd607   2.391       .  S
C47          C52   1.540       .  S
C47        C1378   1.543       .  S
C47        C1393   1.554       .  S
O48        C1187   1.267       .  A
O48         Cd53   2.446       .  S
C49          O58   1.265       .  A
C49          O54   1.268       .  A
O50          C56   1.268       .  A
O50         Cd53   2.427       .  S
C51          O59   1.265       .  A
C51        O1184   1.266   1_455  A
C52          O57   1.263       .  A
C52          O55   1.268       .  A
Cd53         O60   2.604       .  S
Cd53         O58   2.588       .  S
Cd53         O54   2.460       .  S
Cd53         O57   2.562       .  S
Cd53         O55   2.473       .  S
Cd53       O1195   2.644       .  S
C56          O60   1.267       .  A
O59       Cd1189   2.647   1_455  S
C61          C62   1.423       .  A
C61          C66   1.419       .  A
C62          C63   1.417       .  A
C62          N67   1.434       .  S
C63          C64   1.414       .  A
C63          H68   1.082       .  S
C64          C65   1.402       .  A
C64          C69   1.501       .  S
C65          C66   1.393       .  A
C65          N70   1.434       .  S
C66          H71   1.082       .  S
N67          H87   1.046       .  S
N67          H88   1.040       .  S
C69          C72   1.407       .  A
C69          C76   1.406       .  A
N70          H85   1.046       .  S
N70          H86   1.046       .  S
C72          C73   1.406       .  A
C72          H77   1.084       .  S
C73          C74   1.423       .  A
C73          N78   1.433       .  S
C74          C75   1.419       .  A
C75          C76   1.407       .  A
C75          H79   1.081       .  S
C76          N80   1.432       .  S
N78          H81   1.045       .  S
N78          H82   1.045       .  S
N80          H83   1.047       .  S
N80          H84   1.044       .  S
C89          C90   1.411       .  A
C89          C94   1.419       .  A
C90          C91   1.411       .  A
C90          N95   1.430       .  S
C91          C92   1.410       .  A
C91          H96   1.082       .  S
C92          C93   1.400       .  A
C92          C97   1.487       .  S
C93          C94   1.394       .  A
C93          N98   1.434       .  S
C94          H99   1.078       .  S
N95         H115   1.048       .  S
N95         H116   1.042       .  S
C97         C100   1.406       .  A
C97         C104   1.405       .  A
N98         H113   1.044       .  S
N98         H114   1.046       .  S
C100        C385   1.402       .  A
C100        H105   1.084       .  S
C101        C102   1.416       .  A
C101        C384   1.397   1_554  A
C101        N106   1.432       .  S
C102        C387   1.423       .  A
C103        C104   1.399       .  A
C103        C386   1.418       .  A
C103        H391   1.079       .  S
C104        N108   1.438       .  S
N106        H109   1.045       .  S
N106        H110   1.045       .  S
H107        C387   1.081       .  S
N108        H111   1.048       .  S
N108        H112   1.043       .  S
C117        C118   1.442       .  A
C117        C122   1.416       .  A
C118        C119   1.391       .  A
C118        N123   1.430       .  S
C119        C120   1.384       .  A
C119        H124   1.085       .  S
C120        C121   1.404       .  A
C120        C125   1.472       .  S
C121        C122   1.407       .  A
C121        N126   1.432       .  S
C122        H127   1.081       .  S
N123        H143   1.040   1_455  S
N123        H144   1.044       .  S
C125        C128   1.384       .  A
C125        C132   1.404       .  A
N126        H141   1.044       .  S
N126        H142   1.047       .  S
C128        C129   1.395   1_554  A
C128        H133   1.085   1_455  S
C129        C414   1.433       .  A
C129        N134   1.427   1_455  S
C130        C131   1.420       .  A
C130        C413   1.427       .  A
C131        C416   1.409       .  A
C131        H135   1.083       .  S
C132        C415   1.408   1_554  A
C132        N136   1.432       .  S
N134        H137   1.044   1_556  S
N134        H422   1.046       .  S
N136        H140   1.045       .  S
N136        H423   1.044       .  S
H138        N418   1.045       .  S
H139        N420   1.044       .  S
C145        C146   1.418       .  A
C145        C150   1.422       .  A
C146        C147   1.400       .  A
C146        N151   1.427       .  S
C147        C148   1.399       .  A
C147        H152   1.085       .  S
C148        C149   1.396       .  A
C148        C153   1.474       .  S
C149        C150   1.398       .  A
C149        N154   1.432       .  S
C150        H155   1.082       .  S
N151        H171   1.048       .  S
N151        H172   1.038       .  S
C153        C156   1.388       .  A
C153        C160   1.412       .  A
N154        H169   1.045       .  S
N154        H170   1.045       .  S
C156        C157   1.390       .  A
C156        H161   1.085       .  S
C157        C158   1.432       .  A
C157        N162   1.435       .  S
C158        C159   1.413       .  A
C159        C160   1.412       .  A
C159        H163   1.081       .  S
C160        N164   1.438       .  S
N162        H165   1.038       .  S
N162        H166   1.049       .  S
N164        H167   1.045       .  S
N164        H168   1.045       .  S
C173        C178   1.416       .  A
C173        C458   1.424       .  A
C174        C175   1.393   1_556  A
C174        C457   1.427       .  A
C174        N463   1.424       .  S
C175        C176   1.383       .  A
C175        H180   1.085       .  S
C176        C177   1.402       .  A
C176        C181   1.467       .  S
C177        C462   1.408   1_554  A
C177        N182   1.430       .  S
C178        C461   1.399       .  A
C178        H183   1.083       .  S
N179        C458   1.422       .  S
N179        H199   1.044       .  S
N179        H484   1.043       .  S
C181        C184   1.398       .  A
C181        C188   1.395       .  A
N182        H197   1.043       .  S
N182        H198   1.043       .  S
C184        C185   1.402       .  A
C184        H189   1.084       .  S
C185        C186   1.421       .  A
C185        N190   1.432       .  S
C186        C187   1.424       .  A
C187        C188   1.395       .  A
C187        H191   1.082       .  S
C188        N192   1.433       .  S
N190        H193   1.044       .  S
N190        H194   1.044       .  S
N192        H195   1.045       .  S
N192        H196   1.046       .  S
H200        N463   1.043       .  S
C201        C202   1.422       .  A
C201        C206   1.418       .  A
C202        C203   1.403       .  A
C202        N207   1.433       .  S
C203        C204   1.402       .  A
C203        H208   1.084       .  S
C204        C205   1.399       .  A
C204        C209   1.478       .  S
C205        C206   1.395       .  A
C205        N210   1.432       .  S
C206        H211   1.082       .  S
N207        H227   1.046       .  S
N207        H228   1.045       .  S
C209        C212   1.393       .  A
C209        C216   1.408       .  A
N210        H225   1.043       .  S
N210        H226   1.046       .  S
C212        C213   1.398       .  A
C212        H217   1.085       .  S
C213        C214   1.426       .  A
C213        N218   1.432   1_545  S
C214        C215   1.411       .  A
C215        C216   1.404       .  A
C215        H219   1.081       .  S
C216        N220   1.433       .  S
N218        H221   1.045       .  S
N218        H222   1.041       .  S
N220        H223   1.041       .  S
N220        H224   1.046       .  S
C229        C230   1.433       .  A
C229        C234   1.410       .  A
C230        C231   1.398       .  A
C230        N235   1.433       .  S
C231        C232   1.390       .  A
C231        H236   1.085       .  S
C232        C233   1.412       .  A
C232        C237   1.472       .  S
C233        C234   1.394       .  A
C233        N238   1.431       .  S
C234        H239   1.083       .  S
N235        H255   1.044       .  S
N235        H256   1.044       .  S
C237        C240   1.386       .  A
C237        C244   1.412       .  A
N238        H253   1.039       .  S
N238        H254   1.045   1_455  S
C240        C241   1.387       .  A
C240        H245   1.085       .  S
C241        C242   1.425       .  A
C241       N1382   1.430   1_455  S
C242       C1183   1.544       .  S
C242        C243   1.413       .  A
C243        C244   1.410       .  A
C243        H247   1.082       .  S
C244        N248   1.438       .  S
N246       C1377   1.431       .  S
N246        H249   1.046       .  S
N246        H250   1.046       .  S
N248        H251   1.049       .  S
N248        H252   1.042       .  S
C257       C1183   1.549       .  S
C257        C258   1.424       .  A
C257        C262   1.421       .  A
C258        C259   1.402       .  A
C258        N263   1.432       .  S
C259        C260   1.398       .  A
C259        H264   1.085       .  S
C260        C261   1.403       .  A
C260        C265   1.475       .  S
C261        C262   1.397       .  A
C261        N266   1.433       .  S
C262       H1403   1.082   1_455  S
N263        H283   1.046       .  S
N263        H284   1.042       .  S
C265        C268   1.401       .  A
C265        C272   1.401       .  A
N266        H282   1.047   1_455  S
N266       H1417   1.044       .  S
H267       C1398   1.082       .  S
C268        C553   1.407       .  A
C268        H273   1.084       .  S
C269        C270   1.425       .  A
C269        C552   1.410   1_554  A
C269        N274   1.432       .  S
C270        C555   1.420       .  A
C271        C272   1.391       .  A
C271        C554   1.421       .  A
C271        H275   1.083       .  S
C272        N276   1.433       .  S
N274        H277   1.045       .  S
N274        H278   1.045       .  S
N276        H279   1.045       .  S
N276        H280   1.045       .  S
H281       N1402   1.044       .  S
C285        C296   1.528       .  S
C285        C326   1.548       .  S
C285        C513   1.541       .  S
C285        C554   1.553       .  S
C286        C291   1.548       .  S
C286        C333   1.546       .  S
C286        C457   1.551       .  S
C286        C485   1.551       .  S
C287        C289   1.555       .  S
C287        C335   1.543       .  S
C287        C414   1.556       .  S
C287        C429   1.549       .  S
O288        C291   1.266       .  A
O288       Cd293   2.426       .  S
C289        O294   1.265       .  A
O290        C296   1.267       .  A
C292        C302   1.548       .  S
C292        O297   1.268       .  A
Cd293       O300   2.606   1_556  S
Cd293       O294   2.594       .  S
Cd293       O295   2.572   1_556  S
C301        C305   1.548       .  S
C301        C321   1.556       .  S
C301        C470   1.545       .  S
C301        C498   1.546       .  S
C302        C322   1.539       .  S
C302        C358   1.547       .  S
C302        C386   1.548       .  S
C303        C312   1.541       .  S
C303        C340   1.541       .  S
C303        C345   1.549       .  S
C303        C373   1.560       .  S
O304       C1443   1.268       .  A
O304       Cd877   2.458       .  S
C305        O314   1.268       .  A
C305        O310   1.264   1_545  A
O306        C312   1.266       .  A
O306       Cd877   2.422       .  S
C307        C317   1.531       .  S
C307       O1440   1.268   1_455  A
C307        O315   1.264       .  A
C308        C331   1.540       .  S
C308        O313   1.266       .  A
C308        O311   1.265       .  A
Cd309       O872   2.434       .  S
Cd309       O874   2.418       .  S
Cd309       O884   2.601       .  S
Cd309      O2019   2.591   1_565  S
Cd309       O314   2.439   1_565  S
Cd309       O310   2.643       .  S
Cd309       O313   2.440   1_565  S
Cd309       O311   2.611   1_565  S
C312        O316   1.264       .  A
O315      Cd2013   2.594   1_455  S
O316       Cd877   2.617       .  S
C317        C319   1.540       .  S
C317        C401   1.547       .  S
C317        C442   1.549       .  S
O318        C321   1.270       .  A
O318       Cd323   2.536       .  S
C319        O328   1.269       .  A
C319        O324   1.264       .  A
O320        C326   1.266       .  A
O320       Cd323   2.475       .  S
C321        O329   1.265   1_545  A
C322        O327   1.268       .  A
C322        O325   1.265       .  A
Cd323       O330   2.573       .  S
Cd323       O329   2.584   1_545  S
Cd323       O896   2.422   1_545  S
Cd323       O892   2.595       .  S
Cd323       O895   2.442   1_545  S
Cd323       O893   2.558   1_545  S
O324       Cd891   2.597       .  S
O325       Cd891   2.569       .  S
C326        O330   1.266       .  A
O327       Cd891   2.438       .  S
O328       Cd891   2.397       .  S
C331        C336   1.539       .  S
C331       C1662   1.546       .  S
C331       C1677   1.549       .  S
O332       C1471   1.266       .  A
O332       Cd337   2.447       .  S
C333        O342   1.264       .  A
C333        O338   1.268       .  A
O334        C340   1.267       .  A
O334       Cd337   2.431       .  S
C335       O1468   1.267   1_455  A
C335        O343   1.263       .  A
C336        O341   1.264       .  A
C336        O339   1.268       .  A
Cd337       O344   2.593       .  S
Cd337      O1479   2.656       .  S
Cd337       O342   2.637       .  S
Cd337       O338   2.438       .  S
Cd337       O341   2.570       .  S
Cd337       O339   2.460       .  S
C340        O344   1.266       .  A
O343      Cd1473   2.639   1_455  S
C345        C346   1.409       .  A
C345        C350   1.414       .  A
C346        C347   1.415       .  A
C346        N351   1.434       .  S
C347        C348   1.414       .  A
C347        H352   1.081       .  S
C348        C349   1.407       .  A
C348        C353   1.495       .  S
C349        C350   1.392       .  A
C349        N354   1.434       .  S
C350        H355   1.082       .  S
N351        H371   1.042       .  S
N351        H372   1.046       .  S
C353        C356   1.408       .  A
C353        C360   1.406       .  A
N354        H369   1.046       .  S
N354        H370   1.045       .  S
C356        C357   1.401       .  A
C356        H361   1.084       .  S
C357        C358   1.419       .  A
C357        N362   1.434       .  S
C358        C359   1.417       .  A
C359        C360   1.401       .  A
C359        H363   1.079       .  S
C360        N364   1.432       .  S
N362        H365   1.045       .  S
N362        H366   1.045       .  S
N364        H367   1.046       .  S
N364        H368   1.044       .  S
C373        C374   1.428       .  A
C373        C378   1.420       .  A
C374        C375   1.410       .  A
C374        N379   1.435       .  S
C375        C376   1.409       .  A
C375        H380   1.083       .  S
C376        C377   1.396       .  A
C376        C381   1.483       .  S
C377        C378   1.385       .  A
C377        N382   1.434       .  S
C378        H383   1.079       .  S
N379        H399   1.041       .  S
N379        H400   1.043       .  S
C381        C384   1.404       .  A
C381        C388   1.402       .  A
N382        H397   1.046       .  S
N382        H398   1.045       .  S
C384        H389   1.084       .  S
C385        C386   1.418       .  A
C385        N390   1.432       .  S
C387        C388   1.401   1_554  A
C388        N392   1.434       .  S
N390        H393   1.043       .  S
N390        H394   1.047       .  S
N392        H395   1.044       .  S
N392        H396   1.046       .  S
C401        C402   1.434       .  A
C401        C406   1.413       .  A
C402        C403   1.402       .  A
C402        N407   1.431   1_455  S
C403        C404   1.390       .  A
C403        H408   1.085   1_455  S
C404        C405   1.402       .  A
C404        C409   1.473       .  S
C405        C406   1.402       .  A
C405        N410   1.432       .  S
C406        H411   1.082       .  S
N407        H427   1.047       .  S
N407        H428   1.044       .  S
C409        C412   1.386       .  A
C409        C416   1.403       .  A
N410        H425   1.042       .  S
N410        H426   1.047       .  S
C412        C413   1.396       .  A
C412        H417   1.085   1_455  S
C413        N418   1.425   1_455  S
C414        C415   1.417       .  A
C415        H419   1.083       .  S
C416        N420   1.432       .  S
N418        H421   1.045       .  S
N420        H424   1.043       .  S
C429        C430   1.420       .  A
C429        C434   1.425       .  A
C430        C431   1.401       .  A
C430        N435   1.430       .  S
C431        C432   1.402       .  A
C431        H436   1.085       .  S
C432        C433   1.396       .  A
C432        C437   1.478       .  S
C433        C434   1.402       .  A
C433        N438   1.432       .  S
C434        H439   1.083       .  S
N435        H455   1.042       .  S
N435        H456   1.046       .  S
C437        C440   1.388       .  A
C437        C444   1.413       .  A
N438        H453   1.046       .  S
N438        H454   1.041       .  S
C440        C441   1.387       .  A
C440        H445   1.085       .  S
C441        C442   1.429       .  A
C441        N446   1.433       .  S
C442        C443   1.411       .  A
C443        C444   1.411       .  A
C443        H447   1.082       .  S
C444        N448   1.432       .  S
N446        H449   1.047       .  S
N446        H450   1.042       .  S
N448        H451   1.047       .  S
N448        H452   1.044       .  S
C457        C462   1.416       .  A
C458        C459   1.393       .  A
C459        C460   1.384       .  A
C459        H464   1.085       .  S
C460        C461   1.407       .  A
C460        C465   1.466       .  S
C461        N466   1.431       .  S
C462        H467   1.083       .  S
N463        H483   1.045   1_556  S
C465        C468   1.397       .  A
C465        C472   1.398       .  A
N466        H481   1.045       .  S
N466        H482   1.042       .  S
C468        C469   1.400       .  A
C468        H473   1.084       .  S
C469        C470   1.421       .  A
C469        N474   1.432       .  S
C470        C471   1.422       .  A
C471        C472   1.400       .  A
C471        H475   1.081       .  S
C472        N476   1.438       .  S
N474        H477   1.046       .  S
N474        H478   1.041       .  S
N476        H479   1.045       .  S
N476        H480   1.045       .  S
C485        C486   1.422       .  A
C485        C490   1.423       .  A
C486        C487   1.404       .  A
C486        N491   1.433       .  S
C487        C488   1.402       .  A
C487        H492   1.084       .  S
C488        C489   1.403       .  A
C488        C493   1.478       .  S
C489        C490   1.395       .  A
C489        N494   1.434       .  S
C490        H495   1.082       .  S
N491        H511   1.046       .  S
N491        H512   1.045       .  S
C493        C496   1.393       .  A
C493        C500   1.408       .  A
N494        H509   1.045       .  S
N494        H510   1.044       .  S
C496        C497   1.397       .  A
C496        H501   1.084       .  S
C497        C498   1.424       .  A
C497        N502   1.433       .  S
C498        C499   1.414       .  A
C499        C500   1.405       .  A
C499        H503   1.082       .  S
C500        N504   1.433       .  S
N502        H505   1.043   1_545  S
N502        H506   1.044   1_545  S
N504        H507   1.040       .  S
N504        H508   1.048       .  S
C513        C514   1.434       .  A
C513        C518   1.410       .  A
C514        C515   1.393       .  A
C514        N519   1.433       .  S
C515        C516   1.387       .  A
C515        H520   1.085       .  S
C516        C517   1.408       .  A
C516        C521   1.465       .  S
C517        C518   1.401       .  A
C517        N522   1.438       .  S
C518        H523   1.083       .  S
N519        H539   1.048       .  S
N519        H540   1.039       .  S
C521        C524   1.385       .  A
C521        C528   1.408       .  A
N522        H537   1.045   1_455  S
N522        H538   1.042       .  S
C524        C525   1.388       .  A
C524        H529   1.085       .  S
C525        C526   1.432       .  A
C525       N1666   1.433   1_455  S
C526       C1467   1.542       .  S
C526        C527   1.412       .  A
C527        C528   1.406       .  A
C527        H531   1.082       .  S
C528        N532   1.438       .  S
N530       C1661   1.432       .  S
N530        H533   1.046       .  S
N530        H534   1.046       .  S
N532        H535   1.045       .  S
N532        H536   1.046       .  S
C541       C1467   1.560       .  S
C541        C542   1.430       .  A
C541        C546   1.422       .  A
C542        C543   1.409       .  A
C542        N547   1.436       .  S
C543        C544   1.397       .  A
C543        H548   1.084       .  S
C544        C545   1.397       .  A
C544        C549   1.483       .  S
C545        C546   1.403       .  A
C545        N550   1.431       .  S
C546       H1687   1.082   1_455  S
N547        H567   1.042       .  S
N547        H568   1.045       .  S
C549        C552   1.402       .  A
C549        C556   1.398       .  A
N550       H1701   1.047   1_455  S
N550        H566   1.041   1_545  S
H551       C1682   1.082       .  S
C552        H557   1.084       .  S
C553        C554   1.425       .  A
C553        N558   1.431       .  S
C555        C556   1.399   1_554  A
C555        H559   1.080       .  S
C556        N560   1.433       .  S
N558        H561   1.044       .  S
N558        H562   1.047       .  S
N560        H563   1.047       .  S
N560        H564   1.045       .  S
H565       N1686   1.047       .  S
C569        C580   1.531       .  S
C569        C610   1.546       .  S
C569        C797   1.551       .  S
C569        C838   1.564       .  S
C570        C575   1.543       .  S
C570        C617   1.546       .  S
C570        C741   1.552       .  S
C570        C769   1.555       .  S
C571        C573   1.552       .  S
C571        C619   1.541       .  S
C571        C698   1.558       .  S
C571        C713   1.548       .  S
O572        C575   1.265       .  A
O572       Cd577   2.423       .  S
C573        O866   1.263       .  A
C573        O578   1.273       .  A
O574        C580   1.268       .  A
O574       Cd861   2.414   1_554  S
C575        O867   1.267       .  A
C576        C586   1.556       .  S
C576        O581   1.268       .  A
C576        O863   1.264       .  A
Cd577       O858   2.352       .  S
Cd577       O584   2.591       .  S
Cd577       O867   2.630       .  S
Cd577       O866   2.584       .  S
Cd577       O578   2.480       .  S
Cd577       O865   2.512       .  S
Cd577       O579   2.579       .  S
O579        C860   1.266       .  A
C580        O868   1.266       .  A
O581       Cd861   2.503   1_554  S
O582        C857   1.270       .  A
O582       Cd861   2.489       .  S
O583        C859   1.265       .  A
O583       Cd861   2.613       .  S
O584        C864   1.264       .  A
C585        C589   1.539       .  S
C585        C605   1.555       .  S
C585        C754   1.545       .  S
C585        C782   1.549       .  S
C586        C606   1.540       .  S
C586        C642   1.551       .  S
C586        C670   1.549       .  S
C587        C596   1.536       .  S
C587        C624   1.539       .  S
C587        C629   1.557       .  S
C587        C657   1.564       .  S
O588       C1727   1.268       .  A
C589        O598   1.268       .  A
C589        O594   1.264       .  A
O590        C596   1.264       .  A
C591        C601   1.542       .  S
C591       O1724   1.269   1_455  A
C591        O599   1.264   1_565  A
C592        C615   1.537       .  S
C592        O597   1.269       .  A
C592        O595   1.265       .  A
Cd593      O1167   2.592       .  S
Cd593       O598   2.389       .  S
Cd593       O594   2.631       .  S
Cd593       O597   2.445       .  S
Cd593       O595   2.579       .  S
C596        O600   1.265       .  A
O599      Cd1161   2.588   1_445  S
C601        C603   1.540       .  S
C601        C685   1.550       .  S
C601        C726   1.546       .  S
O602        C605   1.270       .  A
O602       Cd607   2.519       .  S
C603        O612   1.267       .  A
C603        O608   1.265   1_565  A
O604        C610   1.266       .  A
O604       Cd607   2.504       .  S
C605        O613   1.264       .  A
C606        O611   1.269       .  A
C606        O609   1.265       .  A
Cd607       O614   2.569       .  S
Cd607       O613   2.601       .  S
C610        O614   1.266       .  A
C615        C620   1.527       .  S
C615       C1946   1.554       .  S
C615       C1961   1.558       .  S
O616       C1755   1.269       .  A
O616       Cd621   2.453       .  S
C617        O626   1.265       .  A
C617        O622   1.269       .  A
O618        C624   1.265       .  A
O618       Cd621   2.430       .  S
C619       O1752   1.266   1_455  A
C619        O627   1.262       .  A
C620        O625   1.263       .  A
C620        O623   1.267       .  A
Cd621       O628   2.591       .  S
Cd621      O1763   2.647       .  S
Cd621       O626   2.604       .  S
Cd621       O622   2.474       .  S
Cd621       O625   2.563       .  S
Cd621       O623   2.435       .  S
C624        O628   1.265       .  A
O627      Cd1757   2.645   1_455  S
C629        C630   1.411       .  A
C629        C634   1.420       .  A
C630        C631   1.414       .  A
C630        N635   1.433       .  S
C631        C632   1.412       .  A
C631        H636   1.081       .  S
C632        C633   1.404       .  A
C632        C637   1.494       .  S
C633        C634   1.394       .  A
C633        N638   1.434       .  S
C634        H639   1.083       .  S
N635        H655   1.044       .  S
N635        H656   1.044       .  S
C637        C640   1.408       .  A
C637        C644   1.404       .  A
N638        H653   1.048       .  S
N638        H654   1.044       .  S
C640        C641   1.402       .  A
C640        H645   1.083       .  S
C641        C642   1.420       .  A
C641        N646   1.434       .  S
C642        C643   1.415       .  A
C643        C644   1.400       .  A
C643        H647   1.078       .  S
C644        N648   1.430       .  S
N646        H649   1.045       .  S
N646        H650   1.044       .  S
N648        H651   1.047       .  S
N648        H652   1.040       .  S
C657        C658   1.429       .  A
C657        C662   1.421       .  A
C658        C659   1.413       .  A
C658        N663   1.434       .  S
C659        C660   1.409       .  A
C659        H664   1.083       .  S
C660        C661   1.394       .  A
C660        C665   1.484       .  S
C661        C662   1.388       .  A
C661        N666   1.433       .  S
C662        H667   1.082       .  S
N663        H683   1.042       .  S
N663        H684   1.042       .  S
C665        C668   1.404       .  A
C665        C672   1.399       .  A
N666        H681   1.046       .  S
N666        H682   1.045       .  S
C668        C953   1.402       .  A
C668        H673   1.084       .  S
C669        C952   1.402   1_554  A
C669        C670   1.416       .  A
C669        N674   1.431       .  S
C670        C955   1.419       .  A
C671        C954   1.425       .  A
C671        C672   1.402       .  A
C671        H959   1.081       .  S
C672        N676   1.433       .  S
N674        H677   1.044       .  S
N674        H678   1.043       .  S
H675        C955   1.081       .  S
N676        H679   1.045       .  S
N676        H680   1.047   1_565  S
C685        C686   1.435       .  A
C685        C690   1.416       .  A
C686        C687   1.398       .  A
C686        N691   1.432   1_455  S
C687        C688   1.387       .  A
C687        H692   1.085       .  S
C688        C689   1.402       .  A
C688        C693   1.470       .  S
C689        C690   1.403       .  A
C689        N694   1.431       .  S
C690        H695   1.082       .  S
N691        H711   1.044   1_665  S
N691        H712   1.047       .  S
C693        C696   1.383       .  A
C693        C700   1.404       .  A
N694        H709   1.046       .  S
N694        H710   1.043       .  S
C696        C697   1.393   1_554  A
C696        H701   1.085       .  S
C697        C982   1.426       .  A
C697        N702   1.423       .  S
C698        C981   1.433       .  A
C698        C699   1.414       .  A
C699        C984   1.401       .  A
C699        H703   1.083       .  S
C700        C983   1.409   1_554  A
C700        N704   1.432       .  S
N702        H705   1.045   1_556  S
N702        H990   1.041   1_455  S
N704        H991   1.043       .  S
N704        H708   1.046       .  S
H706        N986   1.043       .  S
H707        N988   1.044       .  S
C713        C714   1.418       .  A
C713        C718   1.425       .  A
C714        C715   1.403       .  A
C714        N719   1.430       .  S
C715        C716   1.401       .  A
C715        H720   1.084       .  S
C716        C717   1.394       .  A
C716        C721   1.474       .  S
C717        C718   1.397       .  A
C717        N722   1.432       .  S
C718        H723   1.083       .  S
N719        H739   1.043       .  S
N719        H740   1.047       .  S
C721        C724   1.390       .  A
C721        C728   1.409       .  A
N722        H737   1.045       .  S
N722        H738   1.042       .  S
C724        C725   1.393       .  A
C724        H729   1.085       .  S
C725        C726   1.429       .  A
C725        N730   1.433       .  S
C726        C727   1.412       .  A
C727        C728   1.407       .  A
C727        H731   1.082       .  S
C728        N732   1.433       .  S
N730        H733   1.040       .  S
N730        H734   1.047   1_565  S
N732        H735   1.047       .  S
N732        H736   1.045       .  S
C741       C1026   1.426       .  A
C741        C746   1.418       .  A
C742       C1025   1.431   1_554  A
C742        C743   1.395       .  A
C742       N1031   1.434   1_554  S
C743        C744   1.384       .  A
C743        H748   1.085       .  S
C744        C745   1.403       .  A
C744        C749   1.468       .  S
C745       C1030   1.406   1_554  A
C745        N750   1.432       .  S
C746       C1029   1.409       .  A
C746        H751   1.083       .  S
N747       C1026   1.424       .  S
N747        H767   1.041       .  S
N747       H1052   1.046       .  S
C749        C752   1.400       .  A
C749        C756   1.401       .  A
N750        H765   1.044       .  S
N750        H766   1.046       .  S
C752        C753   1.402       .  A
C752        H757   1.084       .  S
C753        C754   1.416       .  A
C753        N758   1.430       .  S
C754        C755   1.424       .  A
C755        C756   1.393       .  A
C755        H759   1.081       .  S
C756        N760   1.434       .  S
N758        H761   1.038       .  S
N758        H762   1.045       .  S
N760        H763   1.048       .  S
N760        H764   1.043       .  S
H768       N1031   1.046   1_554  S
C769        C770   1.422       .  A
C769        C774   1.422       .  A
C770        C771   1.404       .  A
C770        N775   1.431       .  S
C771        C772   1.399       .  A
C771        H776   1.084       .  S
C772        C773   1.403       .  A
C772        C777   1.479       .  S
C773        C774   1.397       .  A
C773        N778   1.433       .  S
C774        H779   1.081       .  S
N775        H795   1.045       .  S
N775        H796   1.046       .  S
C777        C780   1.393       .  A
C777        C784   1.407       .  A
N778        H793   1.044       .  S
N778        H794   1.046       .  S
C780        C781   1.400       .  A
C780        H785   1.084       .  S
C781        C782   1.427       .  A
C781        N786   1.435       .  S
C782        C783   1.413       .  A
C783        C784   1.407       .  A
C783        H787   1.082       .  S
C784        N788   1.433       .  S
N786        H789   1.044       .  S
N786        H790   1.041       .  S
N788        H791   1.044       .  S
N788        H792   1.045       .  S
C797        C798   1.436       .  A
C797        C802   1.410       .  A
C798        C799   1.398       .  A
C798        N803   1.432       .  S
C799        C800   1.390       .  A
C799        H804   1.084       .  S
C800        C801   1.413       .  A
C800        C805   1.482       .  S
C801        C802   1.398       .  A
C801        N806   1.432       .  S
C802        H807   1.083       .  S
N803        H823   1.043       .  S
N803        H824   1.044       .  S
C805        C808   1.389       .  A
C805        C812   1.418       .  A
N806        H821   1.039       .  S
N806        H822   1.046   1_455  S
C808        C809   1.393       .  A
C808        H813   1.084   1_455  S
C809        C810   1.430       .  A
C809       N1950   1.432   1_455  S
C810       C1751   1.550       .  S
C810        C811   1.410       .  A
C811        C812   1.405       .  A
C811        H815   1.082       .  S
C812        N816   1.433       .  S
N814       C1945   1.432       .  S
N814        H817   1.046       .  S
N814        H818   1.047       .  S
N816        H819   1.047       .  S
N816        H820   1.043       .  S
C825       C1751   1.558       .  S
C825        C826   1.422       .  A
C825        C830   1.423       .  A
C826        C827   1.405       .  A
C826        N831   1.428       .  S
C827        C828   1.397       .  A
C827        H832   1.085       .  S
C828        C829   1.404       .  A
C828        C833   1.481       .  S
C829        C830   1.403       .  A
C829        N834   1.433       .  S
C830       H1971   1.082       .  S
N831        H851   1.045       .  S
N831        H852   1.043       .  S
C833        C836   1.401       .  A
C833        C840   1.396       .  A
N834       H1985   1.044       .  S
N834        H850   1.046   1_455  S
H835       C1966   1.083       .  S
C836       C1121   1.410       .  A
C836        H841   1.084       .  S
C837       C1120   1.410   1_554  A
C837        C838   1.426       .  A
C837        N842   1.428       .  S
C838       C1123   1.423   1_554  A
C839       C1122   1.423       .  A
C839        C840   1.398       .  A
C839        H843   1.079       .  S
C840        N844   1.434       .  S
N842        H845   1.046       .  S
N842        H846   1.042       .  S
N844        H847   1.046       .  S
N844        H848   1.045       .  S
H849       N1970   1.045       .  S
C853        C864   1.521       .  S
C853        C894   1.545       .  S
C853       C1081   1.543       .  S
C853       C1122   1.561       .  S
C854        C859   1.534       .  S
C854        C901   1.541       .  S
C854       C1025   1.549       .  S
C854       C1053   1.545       .  S
C855        C857   1.541       .  S
C855        C903   1.544       .  S
C855        C982   1.554       .  S
C855        C997   1.545       .  S
O856        C859   1.264       .  A
O856       Cd861   2.381       .  S
C857        O862   1.264       .  A
O858        C864   1.265       .  A
C860        C870   1.553       .  S
C860        O865   1.267       .  A
Cd861       O868   2.593   1_556  S
Cd861       O862   2.540       .  S
Cd861       O863   2.597   1_556  S
C869        C873   1.548       .  S
C869        C889   1.552       .  S
C869       C1038   1.544       .  S
C869       C1066   1.542       .  S
C870        C890   1.538       .  S
C870        C926   1.557       .  S
C870        C954   1.553       .  S
C871        C880   1.536       .  S
C871        C908   1.539       .  S
C871        C913   1.564       .  S
C871        C941   1.557       .  S
O872       C2011   1.268       .  A
C873        O882   1.269       .  A
C873        O878   1.266       .  A
O874        C880   1.267       .  A
C875        C885   1.528       .  S
C875       O2008   1.265   1_455  A
C875        O883   1.264   1_565  A
C876        C899   1.542       .  S
C876        O881   1.267       .  A
C876        O879   1.265       .  A
Cd877      O1451   2.564       .  S
Cd877       O882   2.441       .  S
Cd877       O878   2.630       .  S
Cd877       O881   2.460       .  S
Cd877       O879   2.591       .  S
C880        O884   1.264       .  A
O883      Cd1445   2.603   1_455  S
C885        C887   1.539       .  S
C885        C969   1.549       .  S
C885       C1010   1.550       .  S
O886        C889   1.271       .  A
O886       Cd891   2.529       .  S
C887        O896   1.268       .  A
C887        O892   1.264   1_565  A
O888        C894   1.265       .  A
O888       Cd891   2.453       .  S
C889        O897   1.265       .  A
C890        O895   1.267       .  A
C890        O893   1.266       .  A
Cd891       O898   2.582       .  S
Cd891       O897   2.585       .  S
C894        O898   1.267       .  A
C899        C904   1.531       .  S
C899       C2230   1.549       .  S
C899       C2245   1.556       .  S
O900       C2039   1.269       .  A
O900       Cd905   2.432       .  S
C901        O910   1.264       .  A
C901        O906   1.269       .  A
O902        C908   1.266       .  A
O902       Cd905   2.435       .  S
C903       O2036   1.267       .  A
C903        O911   1.263       .  A
C904        O909   1.260       .  A
C904        O907   1.266       .  A
Cd905       O912   2.597       .  S
Cd905      O2047   2.644       .  S
Cd905       O910   2.567       .  S
Cd905       O906   2.470       .  S
Cd905       O909   2.562       .  S
Cd905       O907   2.422       .  S
C908        O912   1.267       .  A
O911      Cd2041   2.630   1_455  S
C913        C914   1.420       .  A
C913        C918   1.419       .  A
C914        C915   1.417       .  A
C914        N919   1.436       .  S
C915        C916   1.415       .  A
C915        H920   1.082       .  S
C916        C917   1.403       .  A
C916        C921   1.502       .  S
C917        C918   1.396       .  A
C917        N922   1.433       .  S
C918        H923   1.084       .  S
N919        H939   1.039       .  S
N919        H940   1.046       .  S
C921        C924   1.410       .  A
C921        C928   1.405       .  A
N922        H937   1.046       .  S
N922        H938   1.045       .  S
C924        C925   1.409       .  A
C924        H929   1.084       .  S
C925        C926   1.421       .  A
C925        N930   1.433       .  S
C926        C927   1.419       .  A
C927        C928   1.404       .  A
C927        H931   1.079       .  S
C928        N932   1.432       .  S
N930        H933   1.043       .  S
N930        H934   1.046       .  S
N932        H935   1.047       .  S
N932        H936   1.042       .  S
C941        C942   1.412       .  A
C941        C946   1.423       .  A
C942        C943   1.411       .  A
C942        N947   1.429       .  S
C943        C944   1.410       .  A
C943        H948   1.082       .  S
C944        C945   1.399       .  A
C944        C949   1.489       .  S
C945        C946   1.392       .  A
C945        N950   1.434       .  S
C946        H951   1.081       .  S
N947        H967   1.045       .  S
N947        H968   1.044       .  S
C949        C952   1.407       .  A
C949        C956   1.403       .  A
N950        H965   1.046       .  S
N950        H966   1.045       .  S
C952        H957   1.083       .  S
C953        C954   1.417       .  A
C953        N958   1.431       .  S
C955        C956   1.399   1_554  A
C956        N960   1.434       .  S
N958        H961   1.042       .  S
N958        H962   1.048       .  S
N960        H963   1.047       .  S
N960        H964   1.042   1_565  S
C969        C970   1.434       .  A
C969        C974   1.414       .  A
C970        C971   1.399       .  A
C970        N975   1.432   1_455  S
C971        C972   1.389       .  A
C971        H976   1.085   1_455  S
C972        C973   1.403       .  A
C972        C977   1.475       .  S
C973        C974   1.405       .  A
C973        N978   1.432       .  S
C974        H979   1.083       .  S
N975        H995   1.044   1_565  S
N975        H996   1.047       .  S
C977        C980   1.386       .  A
C977        C984   1.409       .  A
N978        H993   1.044       .  S
N978        H994   1.046       .  S
C980        C981   1.398       .  A
C980        H985   1.085   1_455  S
C981        N986   1.425   1_455  S
C982        C983   1.418       .  A
C983        H987   1.083       .  S
C984        N988   1.430       .  S
N986        H989   1.047       .  S
N988        H992   1.044       .  S
C997        C998   1.419       .  A
C997       C1002   1.424       .  A
C998        C999   1.400       .  A
C998       N1003   1.428       .  S
C999       C1000   1.400       .  A
C999       H1004   1.084       .  S
C1000      C1001   1.396       .  A
C1000      C1005   1.476       .  S
C1001      C1002   1.400       .  A
C1001      N1006   1.433       .  S
C1002      H1007   1.083       .  S
N1003      H1023   1.044       .  S
N1003      H1024   1.045       .  S
C1005      C1008   1.388       .  A
C1005      C1012   1.412       .  A
N1006      H1021   1.047       .  S
N1006      H1022   1.040       .  S
C1008      C1009   1.389       .  A
C1008      H1013   1.085       .  S
C1009      C1010   1.431       .  A
C1009      N1014   1.434       .  S
C1010      C1011   1.413       .  A
C1011      C1012   1.411       .  A
C1011      H1015   1.082       .  S
C1012      N1016   1.433       .  S
N1014      H1017   1.044   1_565  S
N1014      H1018   1.045   1_565  S
N1016      H1019   1.046       .  S
N1016      H1020   1.045       .  S
C1025      C1030   1.416       .  A
C1026      C1027   1.393       .  A
C1027      C1028   1.383       .  A
C1027      H1032   1.085       .  S
C1028      C1029   1.403       .  A
C1028      C1033   1.468       .  S
C1029      N1034   1.430       .  S
C1030      H1035   1.082       .  S
N1031      H1051   1.040       .  S
C1033      C1036   1.398       .  A
C1033      C1040   1.397       .  A
N1034      H1049   1.045       .  S
N1034      H1050   1.042       .  S
C1036      C1037   1.401       .  A
C1036      H1041   1.084       .  S
C1037      C1038   1.423       .  A
C1037      N1042   1.433       .  S
C1038      C1039   1.419       .  A
C1039      C1040   1.395       .  A
C1039      H1043   1.081       .  S
C1040      N1044   1.433       .  S
N1042      H1045   1.042       .  S
N1042      H1046   1.046       .  S
N1044      H1047   1.044       .  S
N1044      H1048   1.047       .  S
C1053      C1054   1.420       .  A
C1053      C1058   1.423       .  A
C1054      C1055   1.401       .  A
C1054      N1059   1.433       .  S
C1055      C1056   1.399       .  A
C1055      H1060   1.084       .  S
C1056      C1057   1.400       .  A
C1056      C1061   1.468       .  S
C1057      C1058   1.392       .  A
C1057      N1062   1.433       .  S
C1058      H1063   1.082       .  S
N1059      H1079   1.047       .  S
N1059      H1080   1.042       .  S
C1061      C1064   1.390       .  A
C1061      C1068   1.406       .  A
N1062      H1077   1.045       .  S
N1062      H1078   1.045       .  S
C1064      C1065   1.394       .  A
C1064      H1069   1.085       .  S
C1065      C1066   1.423       .  A
C1065      N1070   1.431       .  S
C1066      C1067   1.416       .  A
C1067      C1068   1.406       .  A
C1067      H1071   1.082       .  S
C1068      N1072   1.438       .  S
N1070      H1073   1.042       .  S
N1070      H1074   1.044       .  S
N1072      H1075   1.044       .  S
N1072      H1076   1.047       .  S
C1081      C1082   1.435       .  A
C1081      C1086   1.409       .  A
C1082      C1083   1.394       .  A
C1082      N1087   1.433       .  S
C1083      C1084   1.387       .  A
C1083      H1088   1.085       .  S
C1084      C1085   1.405       .  A
C1084      C1089   1.469       .  S
C1085      C1086   1.401       .  A
C1085      N1090   1.431       .  S
C1086      H1091   1.083       .  S
N1087      H1107   1.044       .  S
N1087      H1108   1.043       .  S
C1089      C1092   1.387       .  A
C1089      C1096   1.406       .  A
N1090      H1105   1.044   1_455  S
N1090      H1106   1.044       .  S
C1092      C1093   1.393       .  A
C1092      H1097   1.085       .  S
C1093      C1094   1.431       .  A
C1093      N2234   1.432   1_455  S
C1094      C2035   1.546       .  S
C1094      C1095   1.411       .  A
C1095      C1096   1.404       .  A
C1095      H1099   1.082       .  S
C1096      N1100   1.432       .  S
N1098      C2229   1.433       .  S
N1098      H1101   1.045       .  S
N1098      H1102   1.046       .  S
N1100      H1103   1.046       .  S
N1100      H1104   1.041       .  S
C1109      C2035   1.556       .  S
C1109      C1110   1.422       .  A
C1109      C1114   1.421       .  A
C1110      C1111   1.408       .  A
C1110      N1115   1.429       .  S
C1111      C1112   1.401       .  A
C1111      H1116   1.084       .  S
C1112      C1113   1.400       .  A
C1112      C1117   1.486       .  S
C1113      C1114   1.402       .  A
C1113      N1118   1.432       .  S
C1114      H2255   1.082   1_455  S
N1115      H1135   1.044       .  S
N1115      H1136   1.044       .  S
C1117      C1120   1.400       .  A
C1117      C1124   1.399       .  A
N1118      H2269   1.046   1_455  S
N1118      H1134   1.044       .  S
H1119      C2250   1.082       .  S
C1120      H1125   1.084       .  S
C1121      C1122   1.427       .  A
C1121      N1126   1.432       .  S
C1123      C1124   1.404       .  A
C1123      H1127   1.083   1_556  S
C1124      N1128   1.433       .  S
N1126      H1129   1.044       .  S
N1126      H1130   1.046       .  S
N1128      H1131   1.047       .  S
N1128      H1132   1.044       .  S
H1133      N2254   1.045       .  S
C1137      C1148   1.531       .  S
C1137      C1178   1.548       .  S
C1137      C1365   1.543       .  S
C1137      C1406   1.554       .  S
C1138      C1143   1.552       .  S
C1138      C1185   1.545       .  S
C1138      C1309   1.549       .  S
C1138      C1337   1.546       .  S
C1139      C1141   1.554       .  S
C1139      C1187   1.546       .  S
C1139      C1266   1.557       .  S
C1139      C1281   1.547       .  S
O1140      C1143   1.268       .  A
O1140     Cd1145   2.438       .  S
C1141      O1434   1.264       .  A
C1141      O1146   1.272       .  A
O1142      C1148   1.265       .  A
O1142     Cd1429   2.403   1_554  S
C1143      O1435   1.265       .  A
C1144      C1154   1.552       .  S
C1144      O1149   1.266       .  A
C1144      O1431   1.267       .  A
Cd1145     O1426   2.391       .  S
Cd1145     O1152   2.615       .  S
Cd1145     O1435   2.658       .  S
Cd1145     O1434   2.583       .  S
Cd1145     O1146   2.514       .  S
Cd1145     O1433   2.513       .  S
Cd1145     O1147   2.568       .  S
O1147      C1428   1.266       .  A
C1148      O1436   1.265       .  A
O1149     Cd1429   2.502   1_554  S
O1150      C1425   1.273       .  A
O1150     Cd1429   2.497       .  S
O1151      C1427   1.263       .  A
O1151     Cd1429   2.586       .  S
O1152      C1432   1.265       .  A
C1153      C1157   1.556       .  S
C1153      C1173   1.563       .  S
C1153      C1322   1.546       .  S
C1153      C1350   1.550       .  S
C1154      C1174   1.534       .  S
C1154      C1210   1.553       .  S
C1154      C1238   1.546       .  S
C1155      C1164   1.533       .  S
C1155      C1192   1.536       .  S
C1155      C1197   1.557       .  S
C1155      C1225   1.559       .  S
O1156     Cd1729   2.425       .  S
C1157      O1166   1.270       .  A
C1157      O1162   1.264   1_545  A
O1158      C1164   1.264       .  A
O1158     Cd1729   2.397       .  S
C1159      C1169   1.531       .  S
C1159      O1167   1.263       .  A
C1160      C1183   1.549   1_655  S
C1160      O1165   1.267   1_655  A
C1160      O1163   1.266       .  A
Cd1161     O1724   2.470       .  S
Cd1161     O1726   2.438       .  S
Cd1161     O1736   2.616       .  S
Cd1161     O1166   2.480   1_565  S
Cd1161     O1162   2.653       .  S
Cd1161     O1165   2.462   1_665  S
Cd1161     O1163   2.633   1_565  S
C1164      O1168   1.263       .  A
O1168     Cd1729   2.602       .  S
C1169      C1171   1.535       .  S
C1169      C1253   1.549       .  S
C1169      C1294   1.547       .  S
O1170      C1173   1.271       .  A
O1170     Cd1175   2.557       .  S
C1171      O1180   1.268       .  A
C1171      O1176   1.265       .  A
O1172      C1178   1.266       .  A
O1172     Cd1175   2.514       .  S
C1173      O1181   1.264   1_545  A
C1174      O1179   1.269       .  A
C1174      O1177   1.264       .  A
Cd1175     O1182   2.558       .  S
Cd1175     O1181   2.604   1_545  S
Cd1175     O1748   2.429   1_545  S
Cd1175     O1744   2.619       .  S
Cd1175     O1747   2.437   1_545  S
Cd1175     O1745   2.578   1_545  S
O1176     Cd1743   2.608       .  S
O1177     Cd1743   2.580       .  S
C1178      O1182   1.265       .  A
O1179     Cd1743   2.411       .  S
O1180     Cd1743   2.403       .  S
C1183      C1188   1.547   1_455  S
O1184     Cd1189   2.478       .  S
C1185      O1194   1.264       .  A
C1185      O1190   1.269       .  A
O1186      C1192   1.266       .  A
O1186     Cd1189   2.409       .  S
C1187      O1195   1.264       .  A
C1188      O1193   1.262       .  A
C1188      O1191   1.270       .  A
Cd1189     O1196   2.595       .  S
Cd1189     O1194   2.626       .  S
Cd1189     O1190   2.434       .  S
Cd1189     O1193   2.563       .  S
Cd1189     O1191   2.497       .  S
C1192      O1196   1.267       .  A
C1197      C1198   1.418       .  A
C1197      C1202   1.419       .  A
C1198      C1199   1.411       .  A
C1198      N1203   1.436       .  S
C1199      C1200   1.414       .  A
C1199      H1204   1.081       .  S
C1200      C1201   1.407       .  A
C1200      C1205   1.499       .  S
C1201      C1202   1.397       .  A
C1201      N1206   1.439       .  S
C1202      H1207   1.083       .  S
N1203      H1223   1.041       .  S
N1203      H1224   1.041       .  S
C1205      C1208   1.408       .  A
C1205      C1212   1.406       .  A
N1206      H1221   1.047       .  S
N1206      H1222   1.045       .  S
C1208      C1209   1.404       .  A
C1208      H1213   1.084       .  S
C1209      C1210   1.422       .  A
C1209      N1214   1.433       .  S
C1210      C1211   1.418       .  A
C1211      C1212   1.402       .  A
C1211      H1215   1.081       .  S
C1212      N1216   1.432       .  S
N1214      H1217   1.046       .  S
N1214      H1218   1.045       .  S
N1216      H1219   1.046       .  S
N1216      H1220   1.044       .  S
C1225      C1226   1.424       .  A
C1225      C1230   1.420       .  A
C1226      C1227   1.412       .  A
C1226      N1231   1.436       .  S
C1227      C1228   1.411       .  A
C1227      H1232   1.082       .  S
C1228      C1229   1.398       .  A
C1228      C1233   1.490       .  S
C1229      C1230   1.391       .  A
C1229      N1234   1.434       .  S
C1230      H1235   1.082       .  S
N1231      H1251   1.047       .  S
N1231      H1252   1.036       .  S
C1233      C1236   1.406       .  A
C1233      C1240   1.402       .  A
N1234      H1249   1.045       .  S
N1234      H1250   1.047       .  S
C1236      C1521   1.403       .  A
C1236      H1241   1.084       .  S
C1237      C1520   1.400   1_554  A
C1237      C1238   1.417       .  A
C1237      N1242   1.432       .  S
C1238      C1523   1.422       .  A
C1239      C1522   1.420       .  A
C1239      C1240   1.402       .  A
C1239      H1527   1.081       .  S
C1240      N1244   1.432       .  S
N1242      H1245   1.044       .  S
N1242      H1246   1.045       .  S
H1243      C1523   1.081       .  S
N1244      H1247   1.045       .  S
N1244      H1248   1.045       .  S
C1253      C1254   1.434       .  A
C1253      C1258   1.413       .  A
C1254      C1255   1.397       .  A
C1254      N1259   1.429       .  S
C1255      C1256   1.386       .  A
C1255      H1260   1.085       .  S
C1256      C1257   1.404       .  A
C1256      C1261   1.472       .  S
C1257      C1258   1.405       .  A
C1257      N1262   1.431       .  S
C1258      H1263   1.082       .  S
N1259      H1279   1.046       .  S
N1259      H1280   1.046       .  S
C1261      C1264   1.385       .  A
C1261      C1268   1.414       .  A
N1262      H1277   1.044       .  S
N1262      H1278   1.046       .  S
C1264      C1265   1.394   1_554  A
C1264      H1269   1.085       .  S
C1265      C1550   1.427       .  A
C1265      N1270   1.423       .  S
C1266      C1549   1.428       .  A
C1266      C1267   1.416       .  A
C1267      C1552   1.402       .  A
C1267      H1271   1.083       .  S
C1268      C1551   1.406   1_554  A
C1268      N1272   1.438       .  S
N1270      H1273   1.044   1_556  S
N1270      H1558   1.045       .  S
N1272      H1559   1.046       .  S
N1272      H1276   1.044       .  S
H1274      N1554   1.042       .  S
H1275      N1556   1.041       .  S
C1281      C1282   1.422       .  A
C1281      C1286   1.423       .  A
C1282      C1283   1.402       .  A
C1282      N1287   1.430       .  S
C1283      C1284   1.400       .  A
C1283      H1288   1.084       .  S
C1284      C1285   1.394       .  A
C1284      C1289   1.471       .  S
C1285      C1286   1.398       .  A
C1285      N1290   1.433       .  S
C1286      H1291   1.082       .  S
N1287      H1307   1.038       .  S
N1287      H1308   1.047       .  S
C1289      C1292   1.385       .  A
C1289      C1296   1.407       .  A
N1290      H1305   1.042       .  S
N1290      H1306   1.046       .  S
C1292      C1293   1.390       .  A
C1292      H1297   1.085       .  S
C1293      C1294   1.432       .  A
C1293      N1298   1.432       .  S
C1294      C1295   1.414       .  A
C1295      C1296   1.409       .  A
C1295      H1299   1.082       .  S
C1296      N1300   1.432       .  S
N1298      H1301   1.040       .  S
N1298      H1302   1.049       .  S
N1300      H1303   1.046       .  S
N1300      H1304   1.044       .  S
C1309      C1594   1.430       .  A
C1309      C1314   1.417       .  A
C1310      C1593   1.427       .  A
C1310      C1311   1.396   1_556  A
C1310      N1599   1.426       .  S
C1311      C1312   1.387       .  A
C1311      H1316   1.085       .  S
C1312      C1313   1.407       .  A
C1312      C1317   1.472       .  S
C1313      C1598   1.403   1_554  A
C1313      N1318   1.431       .  S
C1314      C1597   1.406       .  A
C1314      H1319   1.083       .  S
N1315      C1594   1.427       .  S
N1315      H1335   1.043       .  S
N1315      H1620   1.046       .  S
C1317      C1320   1.397       .  A
C1317      C1324   1.398       .  A
N1318      H1333   1.044       .  S
N1318      H1334   1.045       .  S
C1320      C1321   1.401       .  A
C1320      H1325   1.085       .  S
C1321      C1322   1.422       .  A
C1321      N1326   1.431       .  S
C1322      C1323   1.422       .  A
C1323      C1324   1.401       .  A
C1323      H1327   1.082       .  S
C1324      N1328   1.433       .  S
N1326      H1329   1.044       .  S
N1326      H1330   1.042       .  S
N1328      H1331   1.046       .  S
N1328      H1332   1.045       .  S
H1336      N1599   1.046       .  S
C1337      C1338   1.422       .  A
C1337      C1342   1.420       .  A
C1338      C1339   1.403       .  A
C1338      N1343   1.434       .  S
C1339      C1340   1.403       .  A
C1339      H1344   1.084       .  S
C1340      C1341   1.403       .  A
C1340      C1345   1.476       .  S
C1341      C1342   1.394       .  A
C1341      N1346   1.433       .  S
C1342      H1347   1.082       .  S
N1343      H1363   1.045       .  S
N1343      H1364   1.044       .  S
C1345      C1348   1.389       .  A
C1345      C1352   1.407       .  A
N1346      H1361   1.043       .  S
N1346      H1362   1.046       .  S
C1348      C1349   1.394       .  A
C1348      H1353   1.085       .  S
C1349      C1350   1.424       .  A
C1349      N1354   1.431       .  S
C1350      C1351   1.418       .  A
C1351      C1352   1.410       .  A
C1351      H1355   1.082       .  S
C1352      N1356   1.433       .  S
N1354      H1357   1.043   1_545  S
N1354      H1358   1.043       .  S
N1356      H1359   1.041       .  S
N1356      H1360   1.044       .  S
C1365      C1366   1.432       .  A
C1365      C1370   1.413       .  A
C1366      C1367   1.392       .  A
C1366      N1371   1.434       .  S
C1367      C1368   1.388       .  A
C1367      H1372   1.085       .  S
C1368      C1369   1.409       .  A
C1368      C1373   1.466       .  S
C1369      C1370   1.397       .  A
C1369      N1374   1.432       .  S
C1370      H1375   1.083       .  S
N1371      H1391   1.048       .  S
N1371      H1392   1.042       .  S
C1373      C1376   1.386       .  A
C1373      C1380   1.405       .  A
N1374      H1389   1.043       .  S
N1374      H1390   1.045       .  S
C1376      C1377   1.394       .  A
C1376      H1381   1.085       .  S
C1377      C1378   1.432       .  A
C1378      C1379   1.410       .  A
C1379      C1380   1.402       .  A
C1379      H1383   1.082       .  S
C1380      N1384   1.433       .  S
N1382      H1385   1.046       .  S
N1382      H1386   1.046       .  S
N1384      H1387   1.044       .  S
N1384      H1388   1.044       .  S
C1393      C1394   1.425       .  A
C1393      C1398   1.419       .  A
C1394      C1395   1.410       .  A
C1394      N1399   1.430       .  S
C1395      C1396   1.401       .  A
C1395      H1400   1.084       .  S
C1396      C1397   1.397       .  A
C1396      C1401   1.483       .  S
C1397      C1398   1.399       .  A
C1397      N1402   1.431       .  S
N1399      H1419   1.046       .  S
N1399      H1420   1.044       .  S
C1401      C1404   1.401       .  A
C1401      C1408   1.397       .  A
N1402      H1418   1.045       .  S
C1404      C1689   1.410       .  A
C1404      H1409   1.084       .  S
C1405      C1688   1.405   1_554  A
C1405      C1406   1.426       .  A
C1405      N1410   1.431       .  S
C1406      C1691   1.420   1_554  A
C1407      C1690   1.422       .  A
C1407      C1408   1.400       .  A
C1407      H1411   1.081       .  S
C1408      N1412   1.433       .  S
N1410      H1413   1.047       .  S
N1410      H1414   1.043       .  S
N1412      H1415   1.046       .  S
N1412      H1416   1.045       .  S
C1421      C1432   1.530       .  S
C1421      C1462   1.553       .  S
C1421      C1649   1.549       .  S
C1421      C1690   1.560       .  S
C1422      C1427   1.547       .  S
C1422      C1469   1.543       .  S
C1422      C1593   1.551       .  S
C1422      C1621   1.551       .  S
C1423      C1425   1.550       .  S
C1423      C1471   1.548       .  S
C1423      C1550   1.554       .  S
C1423      C1565   1.548       .  S
O1424      C1427   1.268       .  A
O1424     Cd1429   2.480       .  S
C1425      O1430   1.265       .  A
O1426      C1432   1.266       .  A
C1428      C1438   1.547       .  S
C1428      O1433   1.267       .  A
Cd1429     O1436   2.606   1_556  S
Cd1429     O1430   2.583       .  S
Cd1429     O1431   2.590   1_556  S
C1437      C1441   1.549       .  S
C1437      C1457   1.560       .  S
C1437      C1606   1.542       .  S
C1437      C1634   1.543       .  S
C1438      C1458   1.541       .  S
C1438      C1494   1.554       .  S
C1438      C1522   1.553       .  S
C1439      C1448   1.545       .  S
C1439      C1476   1.545       .  S
C1439      C1481   1.559       .  S
C1439      C1509   1.553       .  S
O1440     Cd2013   2.425       .  S
C1441      O1450   1.269       .  A
C1441      O1446   1.264   1_545  A
O1442      C1448   1.267       .  A
O1442     Cd2013   2.407       .  S
C1443      C1453   1.535       .  S
C1443      O1451   1.263       .  A
C1444      C1467   1.544   1_655  S
C1444      O1449   1.267       .  A
C1444      O1447   1.266       .  A
Cd1445     O2008   2.406   1_545  S
Cd1445     O2010   2.411   1_545  S
Cd1445     O2020   2.611   1_545  S
Cd1445     O1450   2.433       .  S
Cd1445     O1446   2.649   1_545  S
Cd1445     O1449   2.464       .  S
Cd1445     O1447   2.607       .  S
C1448      O1452   1.266       .  A
O1452     Cd2013   2.603       .  S
C1453      C1455   1.538       .  S
C1453      C1537   1.546       .  S
C1453      C1578   1.552       .  S
O1454      C1457   1.271       .  A
O1454     Cd1459   2.531       .  S
C1455      O1464   1.267       .  A
C1455      O1460   1.265       .  A
O1456      C1462   1.268       .  A
O1456     Cd1459   2.512       .  S
C1457      O1465   1.266       .  A
C1458      O1463   1.269       .  A
C1458      O1461   1.266       .  A
Cd1459     O1466   2.582       .  S
Cd1459     O1465   2.604       .  S
Cd1459     O2032   2.444   1_545  S
Cd1459     O2028   2.602       .  S
Cd1459     O2031   2.455   1_545  S
Cd1459     O2029   2.578   1_545  S
O1460     Cd2027   2.609       .  S
O1461     Cd2027   2.569       .  S
C1462      O1466   1.266       .  A
O1463     Cd2027   2.461       .  S
O1464     Cd2027   2.409       .  S
C1467      C1472   1.538   1_455  S
O1468     Cd1473   2.436       .  S
C1469      O1478   1.266       .  A
C1469      O1474   1.266       .  A
O1470      C1476   1.268       .  A
O1470     Cd1473   2.443       .  S
C1471      O1479   1.265       .  A
C1472      O1477   1.261       .  A
C1472      O1475   1.269       .  A
Cd1473     O1480   2.621       .  S
Cd1473     O1478   2.627       .  S
Cd1473     O1474   2.442       .  S
Cd1473     O1477   2.557       .  S
Cd1473     O1475   2.443       .  S
C1476      O1480   1.265       .  A
C1481      C1482   1.424       .  A
C1481      C1486   1.417       .  A
C1482      C1483   1.415       .  A
C1482      N1487   1.436       .  S
C1483      C1484   1.414       .  A
C1483      H1488   1.081       .  S
C1484      C1485   1.406       .  A
C1484      C1489   1.503       .  S
C1485      C1486   1.392       .  A
C1485      N1490   1.434       .  S
C1486      H1491   1.082       .  S
N1487      H1507   1.040       .  S
N1487      H1508   1.042       .  S
C1489      C1492   1.407       .  A
C1489      C1496   1.409       .  A
N1490      H1505   1.046       .  S
N1490      H1506   1.045       .  S
C1492      C1493   1.402       .  A
C1492      H1497   1.084       .  S
C1493      C1494   1.419       .  A
C1493      N1498   1.432       .  S
C1494      C1495   1.419       .  A
C1495      C1496   1.407       .  A
C1495      H1499   1.080       .  S
C1496      N1500   1.431       .  S
N1498      H1501   1.045       .  S
N1498      H1502   1.044       .  S
N1500      H1503   1.047       .  S
N1500      H1504   1.041       .  S
C1509      C1510   1.422       .  A
C1509      C1514   1.418       .  A
C1510      C1511   1.407       .  A
C1510      N1515   1.434       .  S
C1511      C1512   1.409       .  A
C1511      H1516   1.082       .  S
C1512      C1513   1.396       .  A
C1512      C1517   1.478       .  S
C1513      C1514   1.386       .  A
C1513      N1518   1.434       .  S
C1514      H1519   1.080       .  S
N1515      H1535   1.041       .  S
N1515      H1536   1.041       .  S
C1517      C1520   1.406       .  A
C1517      C1524   1.399       .  A
N1518      H1533   1.045       .  S
N1518      H1534   1.045       .  S
C1520      H1525   1.084       .  S
C1521      C1522   1.420       .  A
C1521      N1526   1.432       .  S
C1523      C1524   1.395   1_554  A
C1524      N1528   1.434       .  S
N1526      H1529   1.045       .  S
N1526      H1530   1.046       .  S
N1528      H1531   1.046       .  S
N1528      H1532   1.044       .  S
C1537      C1538   1.434       .  A
C1537      C1542   1.412       .  A
C1538      C1539   1.398       .  A
C1538      N1543   1.431       .  S
C1539      C1540   1.388       .  A
C1539      H1544   1.085       .  S
C1540      C1541   1.410       .  A
C1540      C1545   1.474       .  S
C1541      C1542   1.400       .  A
C1541      N1546   1.432       .  S
C1542      H1547   1.082       .  S
N1543      H1563   1.045       .  S
N1543      H1564   1.045       .  S
C1545      C1548   1.385       .  A
C1545      C1552   1.408       .  A
N1546      H1561   1.046       .  S
N1546      H1562   1.044       .  S
C1548      C1549   1.396       .  A
C1548      H1553   1.085       .  S
C1549      N1554   1.422       .  S
C1550      C1551   1.416       .  A
C1551      H1555   1.083       .  S
C1552      N1556   1.431       .  S
N1554      H1557   1.047       .  S
N1556      H1560   1.048       .  S
C1565      C1566   1.420       .  A
C1565      C1570   1.424       .  A
C1566      C1567   1.401       .  A
C1566      N1571   1.430       .  S
C1567      C1568   1.401       .  A
C1567      H1572   1.085       .  S
C1568      C1569   1.401       .  A
C1568      C1573   1.476       .  S
C1569      C1570   1.397       .  A
C1569      N1574   1.433       .  S
C1570      H1575   1.083       .  S
N1571      H1591   1.043       .  S
N1571      H1592   1.045       .  S
C1573      C1576   1.386       .  A
C1573      C1580   1.410       .  A
N1574      H1589   1.042       .  S
N1574      H1590   1.047       .  S
C1576      C1577   1.389       .  A
C1576      H1581   1.085       .  S
C1577      C1578   1.427       .  A
C1577      N1582   1.427       .  S
C1578      C1579   1.413       .  A
C1579      C1580   1.413       .  A
C1579      H1583   1.082       .  S
C1580      N1584   1.432       .  S
N1582      H1585   1.045       .  S
N1582      H1586   1.042       .  S
N1584      H1587   1.047       .  S
N1584      H1588   1.043       .  S
C1593      C1598   1.417       .  A
C1594      C1595   1.389       .  A
C1595      C1596   1.383       .  A
C1595      H1600   1.085       .  S
C1596      C1597   1.404       .  A
C1596      C1601   1.461       .  S
C1597      N1602   1.437       .  S
C1598      H1603   1.083       .  S
N1599      H1619   1.044   1_556  S
C1601      C1604   1.397       .  A
C1601      C1608   1.395       .  A
N1602      H1617   1.045       .  S
N1602      H1618   1.046       .  S
C1604      C1605   1.399       .  A
C1604      H1609   1.084       .  S
C1605      C1606   1.420       .  A
C1605      N1610   1.430       .  S
C1606      C1607   1.421       .  A
C1607      C1608   1.394       .  A
C1607      H1611   1.081       .  S
C1608      N1612   1.433       .  S
N1610      H1613   1.043       .  S
N1610      H1614   1.042       .  S
N1612      H1615   1.047       .  S
N1612      H1616   1.045       .  S
C1621      C1622   1.424       .  A
C1621      C1626   1.419       .  A
C1622      C1623   1.405       .  A
C1622      N1627   1.433       .  S
C1623      C1624   1.402       .  A
C1623      H1628   1.084       .  S
C1624      C1625   1.397       .  A
C1624      C1629   1.478       .  S
C1625      C1626   1.396       .  A
C1625      N1630   1.432       .  S
C1626      H1631   1.082       .  S
N1627      H1647   1.045       .  S
N1627      H1648   1.046       .  S
C1629      C1632   1.393       .  A
C1629      C1636   1.408       .  A
N1630      H1645   1.045       .  S
N1630      H1646   1.044       .  S
C1632      C1633   1.398       .  A
C1632      H1637   1.084       .  S
C1633      C1634   1.425       .  A
C1633      N1638   1.433       .  S
C1634      C1635   1.413       .  A
C1635      C1636   1.403       .  A
C1635      H1639   1.082       .  S
C1636      N1640   1.433       .  S
N1638      H1641   1.043   1_545  S
N1638      H1642   1.043   1_545  S
N1640      H1643   1.044       .  S
N1640      H1644   1.045       .  S
C1649      C1650   1.438       .  A
C1649      C1654   1.412       .  A
C1650      C1651   1.397       .  A
C1650      N1655   1.433       .  S
C1651      C1652   1.387       .  A
C1651      H1656   1.085       .  S
C1652      C1653   1.401       .  A
C1652      C1657   1.471       .  S
C1653      C1654   1.402       .  A
C1653      N1658   1.430       .  S
C1654      H1659   1.083       .  S
N1655      H1675   1.046       .  S
N1655      H1676   1.043       .  S
C1657      C1660   1.388       .  A
C1657      C1664   1.409       .  A
N1658      H1673   1.045       .  S
N1658      H1674   1.041       .  S
C1660      C1661   1.392       .  A
C1660      H1665   1.085       .  S
C1661      C1662   1.428       .  A
C1662      C1663   1.412       .  A
C1663      C1664   1.407       .  A
C1663      H1667   1.082       .  S
C1664      N1668   1.439       .  S
N1666      H1669   1.046       .  S
N1666      H1670   1.046       .  S
N1668      H1671   1.044       .  S
N1668      H1672   1.047       .  S
C1677      C1678   1.425       .  A
C1677      C1682   1.419       .  A
C1678      C1679   1.406       .  A
C1678      N1683   1.431       .  S
C1679      C1680   1.399       .  A
C1679      H1684   1.084       .  S
C1680      C1681   1.398       .  A
C1680      C1685   1.479       .  S
C1681      C1682   1.400       .  A
C1681      N1686   1.432       .  S
N1683      H1703   1.045       .  S
N1683      H1704   1.044       .  S
C1685      C1688   1.399       .  A
C1685      C1692   1.399       .  A
N1686      H1702   1.041   1_545  S
C1688      H1693   1.085       .  S
C1689      C1690   1.427       .  A
C1689      N1694   1.431       .  S
C1691      C1692   1.403       .  A
C1691      H1695   1.082   1_556  S
C1692      N1696   1.437       .  S
N1694      H1697   1.045       .  S
N1694      H1698   1.046       .  S
N1696      H1699   1.044       .  S
N1696      H1700   1.046       .  S
C1705      C1716   1.527       .  S
C1705      C1746   1.546       .  S
C1705      C1933   1.550       .  S
C1705      C1974   1.560       .  S
C1706      C1711   1.542       .  S
C1706      C1753   1.541       .  S
C1706      C1877   1.537       .  S
C1706      C1905   1.540       .  S
C1707      C1709   1.546       .  S
C1707      C1755   1.552       .  S
C1707      C1834   1.547       .  S
C1707      C1849   1.539       .  S
O1708      C1711   1.265       .  A
O1708     Cd1713   2.414       .  S
C1709      O2002   1.273       .  A
C1709      O1714   1.264       .  A
O1710      C1716   1.264       .  A
O1710     Cd1997   2.368   1_554  S
C1711      O2003   1.265       .  A
C1712      C1722   1.556       .  S
C1712      O1717   1.267       .  A
C1712      O1999   1.267       .  A
Cd1713     O1994   2.386       .  S
Cd1713     O1720   2.592       .  S
Cd1713     O2003   2.637       .  S
Cd1713     O2002   2.496       .  S
Cd1713     O1714   2.579       .  S
Cd1713     O2001   2.532       .  S
Cd1713     O1715   2.585       .  S
O1715      C1996   1.267       .  A
C1716      O2004   1.265       .  A
O1717     Cd1997   2.526   1_554  S
O1718      C1993   1.265       .  A
O1718     Cd1997   2.593       .  S
O1719      C1995   1.263       .  A
O1719     Cd1997   2.581       .  S
O1720      C2000   1.266       .  A
C1721      C1725   1.551       .  S
C1721      C1741   1.553       .  S
C1721      C1890   1.549       .  S
C1721      C1918   1.545       .  S
C1722      C1742   1.539       .  S
C1722      C1778   1.557       .  S
C1722      C1806   1.556       .  S
C1723      C1732   1.546       .  S
C1723      C1760   1.544       .  S
C1723      C1765   1.558       .  S
C1723      C1793   1.558       .  S
C1725      O1734   1.269       .  A
C1725      O1730   1.264       .  A
O1726      C1732   1.267       .  A
C1727      C1737   1.536       .  S
C1727      O1735   1.263   1_565  A
C1728      C1751   1.534   1_655  S
C1728      O1733   1.266   1_655  A
C1728      O1731   1.265       .  A
Cd1729     O1734   2.444       .  S
Cd1729     O1730   2.647       .  S
Cd1729     O1733   2.433   1_655  S
Cd1729     O1731   2.598       .  S
C1732      O1736   1.263       .  A
C1737      C1739   1.539       .  S
C1737      C1821   1.548       .  S
C1737      C1862   1.543       .  S
O1738      C1741   1.270       .  A
O1738     Cd1743   2.499       .  S
C1739      O1748   1.267       .  A
C1739      O1744   1.265   1_565  A
O1740      C1746   1.266       .  A
O1740     Cd1743   2.481       .  S
C1741      O1749   1.264       .  A
C1742      O1747   1.269       .  A
C1742      O1745   1.266       .  A
Cd1743     O1750   2.576       .  S
Cd1743     O1749   2.595       .  S
C1746      O1750   1.266       .  A
C1751      C1756   1.537   1_455  S
O1752     Cd1757   2.432       .  S
C1753      O1762   1.264       .  A
C1753      O1758   1.267       .  A
O1754      C1760   1.268       .  A
O1754     Cd1757   2.431       .  S
C1755      O1763   1.265       .  A
C1756      O1761   1.263       .  A
C1756      O1759   1.267       .  A
Cd1757     O1764   2.608       .  S
Cd1757     O1762   2.615       .  S
Cd1757     O1758   2.449       .  S
Cd1757     O1761   2.550       .  S
Cd1757     O1759   2.458       .  S
C1760      O1764   1.267       .  A
C1765      C1766   1.420       .  A
C1765      C1770   1.416       .  A
C1766      C1767   1.414       .  A
C1766      N1771   1.435       .  S
C1767      C1768   1.414       .  A
C1767      H1772   1.081       .  S
C1768      C1769   1.407       .  A
C1768      C1773   1.504       .  S
C1769      C1770   1.396       .  A
C1769      N1774   1.434       .  S
C1770      H1775   1.083       .  S
N1771      H1791   1.034       .  S
N1771      H1792   1.048       .  S
C1773      C1776   1.408       .  A
C1773      C1780   1.408       .  A
N1774      H1789   1.046       .  S
N1774      H1790   1.046       .  S
C1776      C1777   1.404       .  A
C1776      H1781   1.084       .  S
C1777      C1778   1.420       .  A
C1777      N1782   1.433       .  S
C1778      C1779   1.419       .  A
C1779      C1780   1.407       .  A
C1779      H1783   1.079       .  S
C1780      N1784   1.432       .  S
N1782      H1785   1.043       .  S
N1782      H1786   1.047       .  S
N1784      H1787   1.044       .  S
N1784      H1788   1.046       .  S
C1793      C1794   1.422       .  A
C1793      C1798   1.420       .  A
C1794      C1795   1.410       .  A
C1794      N1799   1.436       .  S
C1795      C1796   1.412       .  A
C1795      H1800   1.082       .  S
C1796      C1797   1.400       .  A
C1796      C1801   1.490       .  S
C1797      C1798   1.390       .  A
C1797      N1802   1.434       .  S
C1798      H1803   1.081       .  S
N1799      H1819   1.033       .  S
N1799      H1820   1.049       .  S
C1801      C1804   1.407       .  A
C1801      C1808   1.403       .  A
N1802      H1817   1.046       .  S
N1802      H1818   1.046       .  S
C1804      C2089   1.403       .  A
C1804      H1809   1.084       .  S
C1805      C2088   1.406   1_554  A
C1805      C1806   1.420       .  A
C1805      N1810   1.433       .  S
C1806      C2091   1.422       .  A
C1807      C2090   1.421       .  A
C1807      C1808   1.399       .  A
C1807      H2095   1.081       .  S
C1808      N1812   1.433       .  S
N1810      H1813   1.043       .  S
N1810      H1814   1.045       .  S
H1811      C2091   1.080       .  S
N1812      H1815   1.045       .  S
N1812      H1816   1.046       .  S
C1821      C1822   1.430       .  A
C1821      C1826   1.417       .  A
C1822      C1823   1.396       .  A
C1822      N1827   1.432       .  S
C1823      C1824   1.388       .  A
C1823      H1828   1.085       .  S
C1824      C1825   1.403       .  A
C1824      C1829   1.473       .  S
C1825      C1826   1.405       .  A
C1825      N1830   1.431       .  S
C1826      H1831   1.081       .  S
N1827      H1847   1.046   1_565  S
N1827      H1848   1.045       .  S
C1829      C1832   1.386       .  A
C1829      C1836   1.405       .  A
N1830      H1845   1.045       .  S
N1830      H1846   1.045       .  S
C1832      C1833   1.398   1_554  A
C1832      H1837   1.085       .  S
C1833      C2118   1.432       .  A
C1833      N1838   1.426       .  S
C1834      C2117   1.423       .  A
C1834      C1835   1.418       .  A
C1835      C2120   1.402       .  A
C1835      H1839   1.083       .  S
C1836      C2119   1.407   1_554  A
C1836      N1840   1.433       .  S
N1838      H1841   1.047       .  S
N1838      H2126   1.043       .  S
N1840      H2127   1.041       .  S
N1840      H1844   1.047       .  S
H1842      N2122   1.041       .  S
H1843      N2124   1.045       .  S
C1849      C1850   1.420       .  A
C1849      C1854   1.422       .  A
C1850      C1851   1.396       .  A
C1850      N1855   1.429       .  S
C1851      C1852   1.396       .  A
C1851      H1856   1.085       .  S
C1852      C1853   1.394       .  A
C1852      C1857   1.465       .  S
C1853      C1854   1.398       .  A
C1853      N1858   1.433       .  S
C1854      H1859   1.083       .  S
N1855      H1875   1.039       .  S
N1855      H1876   1.048       .  S
C1857      C1860   1.386       .  A
C1857      C1864   1.406       .  A
N1858      H1873   1.043       .  S
N1858      H1874   1.043       .  S
C1860      C1861   1.388       .  A
C1860      H1865   1.085       .  S
C1861      C1862   1.429       .  A
C1861      N1866   1.432       .  S
C1862      C1863   1.414       .  A
C1863      C1864   1.404       .  A
C1863      H1867   1.082       .  S
C1864      N1868   1.433       .  S
N1866      H1869   1.042       .  S
N1866      H1870   1.047   1_565  S
N1868      H1871   1.046       .  S
N1868      H1872   1.045       .  S
C1877      C2162   1.422       .  A
C1877      C1882   1.418       .  A
C1878      C2161   1.434   1_554  A
C1878      C1879   1.400       .  A
C1878      N2167   1.432   1_554  S
C1879      C1880   1.382       .  A
C1879      H1884   1.085       .  S
C1880      C1881   1.402       .  A
C1880      C1885   1.476       .  S
C1881      C2166   1.412   1_554  A
C1881      N1886   1.430       .  S
C1882      C2165   1.397       .  A
C1882      H1887   1.083       .  S
N1883      C2162   1.425       .  S
N1883      H1903   1.042       .  S
N1883      H2188   1.044       .  S
C1885      C1888   1.400       .  A
C1885      C1892   1.399       .  A
N1886      H1901   1.043       .  S
N1886      H1902   1.044       .  S
C1888      C1889   1.405       .  A
C1888      H1893   1.084       .  S
C1889      C1890   1.422       .  A
C1889      N1894   1.432       .  S
C1890      C1891   1.420       .  A
C1891      C1892   1.398       .  A
C1891      H1895   1.081       .  S
C1892      N1896   1.433       .  S
N1894      H1897   1.045       .  S
N1894      H1898   1.043       .  S
N1896      H1899   1.045       .  S
N1896      H1900   1.046       .  S
H1904      N2167   1.044   1_554  S
C1905      C1906   1.423       .  A
C1905      C1910   1.416       .  A
C1906      C1907   1.399       .  A
C1906      N1911   1.434       .  S
C1907      C1908   1.399       .  A
C1907      H1912   1.085       .  S
C1908      C1909   1.396       .  A
C1908      C1913   1.468       .  S
C1909      C1910   1.392       .  A
C1909      N1914   1.431       .  S
C1910      H1915   1.082       .  S
N1911      H1931   1.044       .  S
N1911      H1932   1.047       .  S
C1913      C1916   1.390       .  A
C1913      C1920   1.403       .  A
N1914      H1929   1.045       .  S
N1914      H1930   1.043       .  S
C1916      C1917   1.399       .  A
C1916      H1921   1.084       .  S
C1917      C1918   1.434       .  A
C1917      N1922   1.440       .  S
C1918      C1919   1.413       .  A
C1919      C1920   1.400       .  A
C1919      H1923   1.082       .  S
C1920      N1924   1.433       .  S
N1922      H1925   1.042       .  S
N1922      H1926   1.046       .  S
N1924      H1927   1.041       .  S
N1924      H1928   1.046       .  S
C1933      C1934   1.436       .  A
C1933      C1938   1.411       .  A
C1934      C1935   1.399       .  A
C1934      N1939   1.433       .  S
C1935      C1936   1.389       .  A
C1935      H1940   1.084       .  S
C1936      C1937   1.402       .  A
C1936      C1941   1.478       .  S
C1937      C1938   1.404       .  A
C1937      N1942   1.429       .  S
C1938      H1943   1.083       .  S
N1939      H1959   1.047       .  S
N1939      H1960   1.039       .  S
C1941      C1944   1.390       .  A
C1941      C1948   1.405       .  A
N1942      H1957   1.046       .  S
N1942      H1958   1.040       .  S
C1944      C1945   1.399       .  A
C1944      H1949   1.085       .  S
C1945      C1946   1.434       .  A
C1946      C1947   1.412       .  A
C1947      C1948   1.408       .  A
C1947      H1951   1.082       .  S
C1948      N1952   1.432       .  S
N1950      H1953   1.046       .  S
N1950      H1954   1.046       .  S
N1952      H1955   1.044       .  S
N1952      H1956   1.044       .  S
C1961      C1962   1.420       .  A
C1961      C1966   1.424       .  A
C1962      C1963   1.411       .  A
C1962      N1967   1.427       .  S
C1963      C1964   1.404       .  A
C1963      H1968   1.084       .  S
C1964      C1965   1.399       .  A
C1964      C1969   1.490       .  S
C1965      C1966   1.401       .  A
C1965      N1970   1.432       .  S
N1967      H1987   1.042       .  S
N1967      H1988   1.045       .  S
C1969      C1972   1.403       .  A
C1969      C1976   1.399       .  A
N1970      H1986   1.045       .  S
C1972      C2257   1.412       .  A
C1972      H1977   1.084       .  S
C1973      C2256   1.407   1_554  A
C1973      C1974   1.425       .  A
C1973      N1978   1.431       .  S
C1974      C2259   1.424       .  A
C1975      C2258   1.422       .  A
C1975      C1976   1.404       .  A
C1975      H1979   1.083       .  S
C1976      N1980   1.432       .  S
N1978      H1981   1.046       .  S
N1978      H1982   1.045       .  S
N1980      H1983   1.044       .  S
N1980      H1984   1.047       .  S
C1989      C2000   1.525       .  S
C1989      C2030   1.543       .  S
C1989      C2217   1.552       .  S
C1989      C2258   1.564       .  S
C1990      C1995   1.545       .  S
C1990      C2037   1.539       .  S
C1990      C2161   1.558       .  S
C1990      C2189   1.553       .  S
C1991      C1993   1.553       .  S
C1991      C2039   1.546       .  S
C1991      C2118   1.555       .  S
C1991      C2133   1.548       .  S
O1992      C1995   1.268       .  A
O1992     Cd1997   2.454       .  S
C1993      O1998   1.273       .  A
O1994      C2000   1.266       .  A
C1996      C2006   1.552       .  S
C1996      O2001   1.268       .  A
Cd1997     O2004   2.611   1_556  S
Cd1997     O1998   2.496       .  S
Cd1997     O1999   2.580   1_556  S
C2005      C2009   1.546       .  S
C2005      C2025   1.554       .  S
C2005      C2174   1.538       .  S
C2005      C2202   1.544       .  S
C2006      C2026   1.542       .  S
C2006      C2062   1.558       .  S
C2006      C2090   1.551       .  S
C2007      C2016   1.536       .  S
C2007      C2044   1.538       .  S
C2007      C2049   1.560       .  S
C2007      C2077   1.560       .  S
C2009      O2018   1.271       .  A
C2009      O2014   1.262       .  A
O2010      C2016   1.267       .  A
C2011      C2021   1.533       .  S
C2011      O2019   1.264   1_565  A
C2012      C2035   1.539   1_655  S
C2012      O2017   1.265   1_655  A
C2012      O2015   1.266       .  A
Cd2013     O2018   2.453       .  S
Cd2013     O2014   2.595       .  S
Cd2013     O2017   2.428   1_655  S
Cd2013     O2015   2.629       .  S
C2016      O2020   1.263       .  A
C2021      C2023   1.547       .  S
C2021      C2105   1.543       .  S
C2021      C2146   1.552       .  S
O2022      C2025   1.269       .  A
O2022     Cd2027   2.522       .  S
C2023      O2032   1.269       .  A
C2023      O2028   1.265   1_565  A
O2024      C2030   1.267       .  A
O2024     Cd2027   2.502       .  S
C2025      O2033   1.265       .  A
C2026      O2031   1.269       .  A
C2026      O2029   1.265       .  A
Cd2027     O2034   2.560       .  S
Cd2027     O2033   2.604       .  S
C2030      O2034   1.267       .  A
C2035      C2040   1.533   1_455  S
O2036     Cd2041   2.452   1_455  S
C2037      O2046   1.266       .  A
C2037      O2042   1.266       .  A
O2038      C2044   1.266       .  A
O2038     Cd2041   2.408       .  S
C2039      O2047   1.265       .  A
C2040      O2045   1.262       .  A
C2040      O2043   1.268       .  A
Cd2041     O2048   2.615       .  S
Cd2041     O2046   2.613       .  S
Cd2041     O2042   2.435       .  S
Cd2041     O2045   2.537       .  S
Cd2041     O2043   2.448       .  S
C2044      O2048   1.266       .  A
C2049      C2050   1.411       .  A
C2049      C2054   1.417       .  A
C2050      C2051   1.420       .  A
C2050      N2055   1.433       .  S
C2051      C2052   1.417       .  A
C2051      H2056   1.081       .  S
C2052      C2053   1.407       .  A
C2052      C2057   1.507       .  S
C2053      C2054   1.395       .  A
C2053      N2058   1.434       .  S
C2054      H2059   1.083       .  S
N2055      H2075   1.048       .  S
N2055      H2076   1.042       .  S
C2057      C2060   1.409       .  A
C2057      C2064   1.408       .  A
N2058      H2073   1.047       .  S
N2058      H2074   1.045       .  S
C2060      C2061   1.407       .  A
C2060      H2065   1.084       .  S
C2061      C2062   1.422       .  A
C2061      N2066   1.433       .  S
C2062      C2063   1.418       .  A
C2063      C2064   1.408       .  A
C2063      H2067   1.080       .  S
C2064      N2068   1.431       .  S
N2066      H2069   1.045       .  S
N2066      H2070   1.045       .  S
N2068      H2071   1.044       .  S
N2068      H2072   1.045       .  S
C2077      C2078   1.421       .  A
C2077      C2082   1.425       .  A
C2078      C2079   1.409       .  A
C2078      N2083   1.434       .  S
C2079      C2080   1.410       .  A
C2079      H2084   1.083       .  S
C2080      C2081   1.396       .  A
C2080      C2085   1.486       .  S
C2081      C2082   1.394       .  A
C2081      N2086   1.433       .  S
C2082      H2087   1.084       .  S
N2083      H2103   1.041       .  S
N2083      H2104   1.043       .  S
C2085      C2088   1.404       .  A
C2085      C2092   1.398       .  A
N2086      H2101   1.047       .  S
N2086      H2102   1.043       .  S
C2088      H2093   1.083       .  S
C2089      C2090   1.417       .  A
C2089      N2094   1.431       .  S
C2091      C2092   1.400   1_554  A
C2092      N2096   1.432       .  S
N2094      H2097   1.042       .  S
N2094      H2098   1.048       .  S
N2096      H2099   1.041       .  S
N2096      H2100   1.046   1_565  S
C2105      C2106   1.433       .  A
C2105      C2110   1.412       .  A
C2106      C2107   1.397       .  A
C2106      N2111   1.430       .  S
C2107      C2108   1.386       .  A
C2107      H2112   1.085       .  S
C2108      C2109   1.402       .  A
C2108      C2113   1.467       .  S
C2109      C2110   1.402       .  A
C2109      N2114   1.430       .  S
C2110      H2115   1.081       .  S
N2111      H2131   1.045   1_565  S
N2111      H2132   1.046       .  S
C2113      C2116   1.384       .  A
C2113      C2120   1.409       .  A
N2114      H2129   1.044       .  S
N2114      H2130   1.046       .  S
C2116      C2117   1.391       .  A
C2116      H2121   1.085       .  S
C2117      N2122   1.423       .  S
C2118      C2119   1.416       .  A
C2119      H2123   1.083       .  S
C2120      N2124   1.432       .  S
N2122      H2125   1.046       .  S
N2124      H2128   1.045       .  S
C2133      C2134   1.416       .  A
C2133      C2138   1.424       .  A
C2134      C2135   1.404       .  A
C2134      N2139   1.427       .  S
C2135      C2136   1.404       .  A
C2135      H2140   1.084       .  S
C2136      C2137   1.397       .  A
C2136      C2141   1.480       .  S
C2137      C2138   1.399       .  A
C2137      N2142   1.432       .  S
C2138      H2143   1.083       .  S
N2139      H2159   1.044       .  S
N2139      H2160   1.045       .  S
C2141      C2144   1.389       .  A
C2141      C2148   1.412       .  A
N2142      H2157   1.044       .  S
N2142      H2158   1.045       .  S
C2144      C2145   1.391       .  A
C2144      H2149   1.085       .  S
C2145      C2146   1.429       .  A
C2145      N2150   1.434       .  S
C2146      C2147   1.414       .  A
C2147      C2148   1.412       .  A
C2147      H2151   1.082       .  S
C2148      N2152   1.433       .  S
N2150      H2153   1.041       .  S
N2150      H2154   1.047   1_565  S
N2152      H2155   1.045       .  S
N2152      H2156   1.046       .  S
C2161      C2166   1.418       .  A
C2162      C2163   1.385       .  A
C2163      C2164   1.382       .  A
C2163      H2168   1.085       .  S
C2164      C2165   1.405       .  A
C2164      C2169   1.453       .  S
C2165      N2170   1.431       .  S
C2166      H2171   1.083       .  S
N2167      H2187   1.043       .  S
C2169      C2172   1.397       .  A
C2169      C2176   1.391       .  A
N2170      H2185   1.045       .  S
N2170      H2186   1.043       .  S
C2172      C2173   1.398       .  A
C2172      H2177   1.085       .  S
C2173      C2174   1.420       .  A
C2173      N2178   1.430       .  S
C2174      C2175   1.423       .  A
C2175      C2176   1.389       .  A
C2175      H2179   1.080       .  S
C2176      N2180   1.434       .  S
N2178      H2181   1.044       .  S
N2178      H2182   1.044       .  S
N2180      H2183   1.045       .  S
N2180      H2184   1.044       .  S
C2189      C2190   1.421       .  A
C2189      C2194   1.425       .  A
C2190      C2191   1.406       .  A
C2190      N2195   1.431       .  S
C2191      C2192   1.402       .  A
C2191      H2196   1.084       .  S
C2192      C2193   1.400       .  A
C2192      C2197   1.474       .  S
C2193      C2194   1.391       .  A
C2193      N2198   1.434       .  S
C2194      H2199   1.082       .  S
N2195      H2215   1.046       .  S
N2195      H2216   1.046       .  S
C2197      C2200   1.389       .  A
C2197      C2204   1.415       .  A
N2198      H2213   1.043       .  S
N2198      H2214   1.046       .  S
C2200      C2201   1.396       .  A
C2200      H2205   1.085       .  S
C2201      C2202   1.424       .  A
C2201      N2206   1.429       .  S
C2202      C2203   1.414       .  A
C2203      C2204   1.403       .  A
C2203      H2207   1.083       .  S
C2204      N2208   1.438       .  S
N2206      H2209   1.039       .  S
N2206      H2210   1.044       .  S
N2208      H2211   1.048       .  S
N2208      H2212   1.040       .  S
C2217      C2218   1.438       .  A
C2217      C2222   1.411       .  A
C2218      C2219   1.400       .  A
C2218      N2223   1.434       .  S
C2219      C2220   1.389       .  A
C2219      H2224   1.085       .  S
C2220      C2221   1.407       .  A
C2220      C2225   1.472       .  S
C2221      C2222   1.397       .  A
C2221      N2226   1.432       .  S
C2222      H2227   1.082       .  S
N2223      H2243   1.041       .  S
N2223      H2244   1.045       .  S
C2225      C2228   1.387       .  A
C2225      C2232   1.404       .  A
N2226      H2241   1.043       .  S
N2226      H2242   1.047       .  S
C2228      C2229   1.395       .  A
C2228      H2233   1.085       .  S
C2229      C2230   1.433       .  A
C2230      C2231   1.411       .  A
C2231      C2232   1.406       .  A
C2231      H2235   1.083       .  S
C2232      N2236   1.431       .  S
N2234      H2237   1.046       .  S
N2234      H2238   1.047       .  S
N2236      H2239   1.047       .  S
N2236      H2240   1.039       .  S
C2245      C2246   1.423       .  A
C2245      C2250   1.423       .  A
C2246      C2247   1.407       .  A
C2246      N2251   1.431       .  S
C2247      C2248   1.400       .  A
C2247      H2252   1.084       .  S
C2248      C2249   1.403       .  A
C2248      C2253   1.481       .  S
C2249      C2250   1.397       .  A
C2249      N2254   1.433       .  S
N2251      H2271   1.045       .  S
N2251      H2272   1.045       .  S
C2253      C2256   1.400       .  A
C2253      C2260   1.402       .  A
N2254      H2270   1.046       .  S
C2256      H2261   1.084       .  S
C2257      C2258   1.424       .  A
C2257      N2262   1.428       .  S
C2259      C2260   1.397   1_554  A
C2259      H2263   1.080       .  S
C2260      N2264   1.433       .  S
N2262      H2265   1.043       .  S
N2262      H2266   1.045       .  S
N2264      H2267   1.044       .  S
N2264      H2268   1.047       .  S
