geometry optimzed in LAMMPS
_audit_creation_date              2020-11-30 
_audit_creation_method            'lammps2cif' 
_symmetry_space_group_name_H-M    'P1' 
_symmetry_Int_Tables_number       1 
_symmetry_cell_setting            triclinic 
loop_ 
_symmetry_equiv_pos_as_xyz 
  x,y,z 
_cell_length_a                    24.54948049 
_cell_length_b                    33.48910398401706 
_cell_length_c                    37.18376293838024 
_cell_angle_alpha                 89.6747628348005 
_cell_angle_beta                  89.73676845188771 
_cell_angle_gamma                 89.9752122819228 
loop_ 
_atom_site_label 
_atom_site_type_symbol 
_atom_site_fract_x 
_atom_site_fract_y 
_atom_site_fract_z 
_atom_site_charge 
In1        In  0.39941692  0.15899264  0.17889296     1.36900
C2          C  0.42686886  0.11361223  0.12302225     0.77400
O3          O  0.46444032  0.20548604  0.18037324    -0.61000
O4          O  0.41545186  0.19447279  0.22709670    -0.51900
C5          C  0.32005318  0.21284239  0.16949069     0.70100
O6          O  0.36635484  0.21546865  0.15486199    -0.46800
C7          C  0.42551771  0.10566444  0.22859542     0.74800
O8          O  0.38035274  0.11104676  0.13765618    -0.58700
O9          O  0.45946759  0.12454739  0.20965220    -0.48800
O10         O  0.45559914  0.14222633  0.13401037    -0.55100
C11         C  0.45244065  0.21512977  0.21238215     0.85000
O12         O  0.31103873  0.17939648  0.18465539    -0.57000
O13         O  0.37585450  0.11319084  0.22190757    -0.60300
In14       In  0.09402993  0.40382779  0.18081216     1.36900
C15         C  0.06563611  0.44705215  0.12373941     0.77400
O16         O  0.03273991  0.35529197  0.18270607    -0.61000
O17         O  0.08163928  0.36675378  0.22902795    -0.51900
C18         C  0.17632710  0.35235341  0.17163721     0.70100
O19         O  0.18234335  0.38410431  0.18977260    -0.46800
C20         C  0.05863433  0.45698724  0.22832670     0.74800
O21         O  0.11073668  0.45235909  0.13941728    -0.58700
O22         O  0.02817710  0.43397051  0.21090991    -0.48800
O23         O  0.03934992  0.41678256  0.13432145    -0.55100
C24         C  0.04565996  0.34536546  0.21452783     0.85000
O25         O  0.13224413  0.35099129  0.15441822    -0.57000
O26         O  0.10921388  0.45352779  0.22142916    -0.60300
In27       In  0.08138308  0.16672380  0.06975175     1.36900
C28         C  0.05114107  0.12267197  0.12598051     0.77000
O29         O  0.01418011  0.21099481  0.06516273    -0.61000
O30         O  0.08762391  0.19803000  0.51490695    -0.51900
C31         C  0.17536610  0.21661172  0.57603024     0.70100
O32         O  0.11365179  0.22144052  0.09668463    -0.46800
C33         C  0.06602408  0.10739684  0.51854575     0.74800
O34         O  0.09749405  0.11842741  0.11140557    -0.58700
O35         O  0.03442428  0.12765560  0.53791534    -0.48800
O36         O  0.02434248  0.15238362  0.11487639    -0.55100
C37         C  0.03087166  0.22288534  0.03462130     0.85000
O38         O  0.18574345  0.18433345  0.55948711    -0.57000
O39         O  0.11660272  0.11408746  0.52296456    -0.60300
In40       In  0.38719390  0.41117890  0.07399314     1.36900
C41         C  0.41157626  0.45684257  0.12957442     0.77400
O42         O  0.45274416  0.36502860  0.07456691    -0.61000
O43         O  0.40710963  0.37402749  0.51813138    -0.51900
C44         C  0.31964736  0.35582257  0.57850441     0.70100
O45         O  0.35313280  0.35651691  0.10065752    -0.46800
C46         C  0.42784260  0.46400400  0.51897824     0.74800
O47         O  0.36624041  0.46025208  0.11373771    -0.58700
O48         O  0.46011742  0.44292437  0.53714026    -0.48800
O49         O  0.44028137  0.42770262  0.11958203    -0.55100
C50         C  0.44103293  0.35385004  0.04301159     0.85000
O51         O  0.30975031  0.38809506  0.56156246    -0.57000
O52         O  0.37749402  0.45846111  0.52555682    -0.60300
In53       In  0.48854102  0.03057007  0.30582607     1.36900
C54         C  0.44520190  0.07827270  0.25644722     0.77400
O55         O  0.48857792  0.08673397  0.33850434    -0.61000
O56         O  0.06947606  0.05776846  0.47143830    -0.51900
C57         C  0.44995706  0.49178731  0.49218322     0.70100
O58         O  0.41264097  0.00883189  0.33584153    -0.46800
C59         C  0.03469816  0.48451538  0.25476831     0.74800
O60         O  0.41524579  0.05764718  0.27710048    -0.58700
O61         O  0.06283920  0.00973715  0.41202051    -0.48800
O62         O  0.49557731  0.07427768  0.26147348    -0.55100
C63         C  0.04252102  0.07960443  0.49264836     0.85000
O64         O  0.50078871  0.49527843  0.48822883    -0.57000
O65         O  0.49027955  0.48645050  0.40875545    -0.60300
In66       In  0.49349298  0.03141153  0.05180324     1.36900
C67         C  0.43304636  0.48595310  0.15532157     0.77400
O68         O  0.48577664  0.07970397  0.01143847    -0.61000
O69         O  0.05336553  0.06560552  0.16609934    -0.51900
C70         C  0.44871312  0.08427170  0.09722584     0.70100
O71         O  0.42083312  0.05722229  0.08255796    -0.46800
C72         C  0.04208273  0.47569424  0.09778484     0.74800
O73         O  0.41871012  0.00338696  0.02621713    -0.58700
O74         O  0.06703600  0.50568962  0.08539498    -0.48800
O75         O  0.48263801  0.48586082  0.16359649    -0.55100
C76         C  0.02708211  0.09353635  0.15134024     0.85000
O77         O  0.49856507  0.08348226  0.08921196    -0.57000
O78         O  0.47604687  0.49405505  0.24281331    -0.60300
C79         C  0.00503840  0.25559668  0.01489108    -0.00300
C80         C  0.94862135  0.26078741  0.01783350    -0.12200
C81         C  0.51259469  0.29941547  0.03822215     0.01900
C82         C  0.46659665  0.31979252  0.02481658    -0.00400
C83         C  0.44193044  0.30307883  0.48392383    -0.12100
C84         C  0.04444510  0.27159886  0.48135615     0.01800
H85         H  0.92477682  0.24078007  0.03474091     0.14800
H86         H  0.40117247  0.31357072  0.47771348     0.14800
C87         C  0.10260506  0.26918142  0.47575961     0.36400
C88         C  0.53839494  0.31024855  0.07162760     0.36300
N89         N  0.14924508  0.26750212  0.47136146    -0.43900
N90         N  0.55884098  0.31853929  0.09856436    -0.43900
C91         C  0.21240082  0.25219421  0.57656497    -0.00300
C92         C  0.26912797  0.24720965  0.57711742    -0.12200
C93         C  0.30436347  0.28042348  0.57827664     0.01900
C94         C  0.28314573  0.31995081  0.57812567    -0.00400
C95         C  0.21426270  0.32801542  0.08256062    -0.12100
C96         C  0.17798401  0.29546731  0.08261646     0.01800
H97         H  0.28599303  0.21731956  0.57734794     0.14800
H98         H  0.19829374  0.35819989  0.08244264     0.14800
C99         C  0.12039169  0.30419063  0.08267243     0.36400
C100        C  0.36229603  0.27286001  0.57889963     0.36300
N101        N  0.07432230  0.31151874  0.08308875    -0.43900
N102        N  0.40866255  0.26663876  0.57955050    -0.43900
C103        C  0.47658812  0.24928914  0.23115034    -0.00300
C104        C  0.44764270  0.26500947  0.26052863    -0.12200
C105        C  0.04316015  0.29455612  0.26488783     0.01900
C106        C  0.02035642  0.31149893  0.23343694    -0.00400
C107        C  0.54387929  0.30151864  0.23792412    -0.12100
C108        C  0.52533859  0.26780253  0.21983217     0.01800
H109        H  0.40958896  0.25140984  0.26913969     0.14800
H110        H  0.58183881  0.31523959  0.22935307     0.14800
C111        C  0.55769684  0.25276099  0.19033071     0.36400
C112        C  0.09525955  0.30693545  0.27889267     0.36300
N113        N  0.58390959  0.24095044  0.16672394    -0.43900
N114        N  0.13717992  0.31658215  0.28999625    -0.43900
C115        C  0.28222039  0.24791073  0.17101614    -0.00300
C116        C  0.30457558  0.28651257  0.17467259    -0.12200
C117        C  0.27137410  0.32085130  0.17608997     0.01900
C118        C  0.21442196  0.31731440  0.17238962    -0.00400
C119        C  0.19204728  0.27859196  0.16985278    -0.12100
C120        C  0.22509322  0.24418487  0.16974643     0.01800
H121        H  0.34843898  0.28989414  0.17667569     0.14800
H122        H  0.14822086  0.27511185  0.16780640     0.14800
C123        C  0.19955932  0.20558640  0.16637447     0.36400
C124        C  0.29687843  0.35932676  0.18037100     0.36300
N125        N  0.17918659  0.17462892  0.16340855    -0.43900
N126        N  0.31736168  0.39017034  0.18388484    -0.43900
In127      In  0.38213580  0.16281324  0.67524076     1.36900
C128        C  0.40753774  0.11641138  0.62012751     0.77400
O129        O  0.44624998  0.20995411  0.67458319    -0.61000
O130        O  0.39928260  0.19965469  0.72226477    -0.51900
C131        C  0.30208756  0.21607926  0.66556712     0.70100
O132        O  0.34670776  0.21682886  0.64866602    -0.46800
C133        C  0.41647357  0.11138557  0.72463341     0.74800
O134        O  0.36372037  0.11131492  0.63768573    -0.58700
O135        O  0.44734160  0.13028073  0.70345470    -0.48800
O136        O  0.43329214  0.14782079  0.62771114    -0.55100
C137        C  0.43560421  0.22014004  0.70664231     0.85000
O138        O  0.29423560  0.18411217  0.68345966    -0.57000
O139        O  0.36581488  0.11770393  0.72029666    -0.60300
In140      In  0.08430449  0.41166855  0.68165772     1.36900
C141        C  0.04957765  0.45607190  0.62685602     0.77400
O142        O  0.02012592  0.36487222  0.68440064    -0.61000
O143        O  0.07301561  0.37357306  0.72930207    -0.51900
C144        C  0.16413907  0.35895375  0.66798104     0.70100
O145        O  0.17282329  0.39023095  0.68627324    -0.46800
C146        C  0.05788927  0.46496816  0.73139778     0.74800
O147        O  0.09708071  0.46015661  0.63946504    -0.58700
O148        O  0.02464303  0.44272679  0.71555762    -0.48800
O149        O  0.02329651  0.42685664  0.63950632    -0.55100
C150        C  0.03485974  0.35370057  0.71548259     0.85000
O151        O  0.11840161  0.35860142  0.65267939    -0.57000
O152        O  0.10741371  0.46030390  0.72215332    -0.60300
In153      In  0.09785130  0.16216921  0.56453162     1.36900
C154        C  0.07133766  0.11910744  0.62222022     0.77000
O155        O  0.02907285  0.20444153  0.55736101    -0.61000
O156        O  0.07182090  0.20482528  0.02204528    -0.51900
C157        C  0.15996696  0.22045029  0.08187316     0.70100
O158        O  0.12881413  0.21748240  0.59052956    -0.46800
C159        C  0.05425845  0.11258253  0.02091377     0.74800
O160        O  0.11468873  0.11240316  0.60463910    -0.58700
O161        O  0.02079564  0.13339591  0.03832813    -0.48800
O162        O  0.04622370  0.15042187  0.61298523    -0.55100
C163        C  0.04510281  0.21513267  0.52630222     0.85000
O164        O  0.16958254  0.18827400  0.06503423    -0.57000
O165        O  0.10399282  0.11884944  0.02841250    -0.60300
In166      In  0.39710057  0.41031583  0.56706451     1.36900
C167        C  0.42553523  0.45427009  0.62334025     0.77400
O168        O  0.46259447  0.36537769  0.56176411    -0.61000
O169        O  0.40357675  0.37337846  0.02777763    -0.51900
C170        C  0.30822854  0.35737675  0.08435184     0.70100
O171        O  0.36517119  0.35535621  0.59413107    -0.46800
C172        C  0.41882190  0.46163571  0.02271163     0.74800
O173        O  0.38030591  0.45939112  0.60768059    -0.58700
O174        O  0.45062622  0.44295337  0.04318508    -0.48800
O175        O  0.45186884  0.42396284  0.61312794    -0.55100
C176        C  0.44724711  0.35495879  0.53067655     0.85000
O177        O  0.29986171  0.38946777  0.06682389    -0.57000
O178        O  0.36843967  0.45610382  0.02904362    -0.60300
In179      In  0.48982838  0.04118930  0.80222878     1.36900
C180        C  0.44032639  0.08556865  0.75246210     0.77400
O181        O  0.48646866  0.09689161  0.83580243    -0.61000
O182        O  0.06341249  0.06146714  0.97511627    -0.51900
C183        C  0.44156673  0.48664303  0.99377978     0.70100
O184        O  0.41694739  0.01506727  0.83254189    -0.46800
C185        C  0.03719711  0.49330511  0.75820211     0.74800
O186        O  0.41333670  0.06592130  0.77551785    -0.58700
O187        O  0.06422828  0.00916959  0.91693941    -0.48800
O188        O  0.49127264  0.08233257  0.75522861    -0.55100
C189        C  0.03397780  0.08414343  0.99409388     0.85000
O190        O  0.49234203  0.48793189  0.98868028    -0.57000
O191        O  0.48612992  0.47962130  0.90728804    -0.60300
In192      In  0.47900544  0.03344153  0.55182477     1.36900
C193        C  0.44904092  0.48275731  0.64923143     0.77400
O194        O  0.47777136  0.08026780  0.50936883    -0.61000
O195        O  0.07204432  0.06017317  0.66034635    -0.51900
C196        C  0.43064949  0.08689682  0.59509201     0.70100
O197        O  0.40689869  0.05529328  0.58558482    -0.46800
C198        C  0.02447311  0.48407936  0.60110005     0.74800
O199        O  0.40278508  0.01036028  0.52339356    -0.58700
O200        O  0.05022754  0.51135227  0.58482527    -0.48800
O201        O  0.49801637  0.48043377  0.65881980    -0.55100
C202        C  0.04828738  0.09123494  0.64918451     0.85000
O203        O  0.47830689  0.09051123  0.58298193    -0.57000
O204        O  0.49228216  0.49029749  0.73702821    -0.60300
C205        C  0.01648135  0.24565789  0.50516679    -0.00300
C206        C  0.96021898  0.25004905  0.51017431    -0.12200
C207        C  0.52514449  0.30788845  0.51886694     0.01900
C208        C  0.47254046  0.32203119  0.51073888    -0.00400
C209        C  0.44165730  0.30633918  0.99324347    -0.12100
C210        C  0.03603938  0.28165716  0.99295227     0.01800
H211        H  0.93832595  0.22949725  0.52767922     0.14800
H212        H  0.40521475  0.32090701  0.98320416     0.14800
C213        C  0.09487186  0.28058244  0.99231642     0.36400
C214        C  0.55950814  0.32687917  0.54514848     0.36300
N215        N  0.14200800  0.28014750  0.99229845    -0.43900
N216        N  0.58706476  0.34204433  0.56622214    -0.43900
C217        C  0.19784664  0.25559099  0.08249806    -0.00300
C218        C  0.25444368  0.24972627  0.08220342    -0.12200
C219        C  0.29070435  0.28229642  0.08367851     0.01900
C220        C  0.27070858  0.32213456  0.08395686    -0.00400
C221        C  0.22656726  0.32486806  0.57588605    -0.12100
C222        C  0.19136468  0.29170945  0.57540928     0.01800
H223        H  0.27044042  0.21955387  0.08192987     0.14800
H224        H  0.20966848  0.35474383  0.57495998     0.14800
C225        C  0.13367052  0.29932557  0.57234489     0.36400
C226        C  0.34835909  0.27372076  0.08458328     0.36300
N227        N  0.08746270  0.30550089  0.56979228    -0.43900
N228        N  0.39444696  0.26654903  0.08568338    -0.43900
C229        C  0.46203075  0.25364205  0.72515605    -0.00300
C230        C  0.45077098  0.25838588  0.76194668    -0.12200
C231        C  0.04010857  0.29639092  0.75899426     0.01900
C232        C  0.01011015  0.31963203  0.73419661    -0.00400
C233        C  0.51843812  0.31302300  0.72693304    -0.12100
C234        C  0.49583876  0.28163775  0.70740985     0.01800
H235        H  0.42462948  0.23723675  0.77593044     0.14800
H236        H  0.54472702  0.33420491  0.71314040     0.14800
C237        C  0.50761213  0.27950004  0.66935350     0.36400
C238        C  0.09669903  0.30418655  0.76678884     0.36300
N239        N  0.51714760  0.27799374  0.63887360    -0.43900
N240        N  0.14199766  0.31049538  0.77308068    -0.43900
C241        C  0.26555564  0.25200113  0.66649654    -0.00300
C242        C  0.28974855  0.29025989  0.66608006    -0.12200
C243        C  0.25825314  0.32547311  0.66709357     0.01900
C244        C  0.20087263  0.32312628  0.66722681    -0.00400
C245        C  0.17673419  0.28485763  0.66812885    -0.12100
C246        C  0.20829865  0.24967188  0.66856880     0.01800
H247        H  0.33382827  0.29272536  0.66517559     0.14800
H248        H  0.13267340  0.28237315  0.66912746     0.14800
C249        C  0.18087380  0.21162572  0.67035860     0.36400
C250        C  0.28591035  0.36348349  0.66661076     0.36300
N251        N  0.15881808  0.18112558  0.67185630    -0.43900
N252        N  0.30854130  0.39379369  0.66605560    -0.43900
In253      In  0.39849517  0.67119113  0.32325433     1.36900
C254        C  0.41907253  0.61542828  0.27520664     0.77400
O255        O  0.42317213  0.70320712  0.27413270    -0.61000
O256        O  0.46882038  0.71270429  0.32214659    -0.51900
C257        C  0.32053416  0.72651143  0.33032005     0.70100
O258        O  0.31130330  0.69268668  0.31651947    -0.46800
C259        C  0.42669734  0.62630098  0.37893063     0.74800
O260        O  0.37024216  0.62588279  0.28142785    -0.58700
O261        O  0.45468434  0.65542895  0.36795219    -0.48800
O262        O  0.45440814  0.63252665  0.29388245    -0.55100
C263        C  0.46279732  0.72032211  0.28902548     0.85000
O264        O  0.36682789  0.72948303  0.34456080    -0.57000
O265        O  0.37974846  0.62380557  0.36525460    -0.60300
In266      In  0.08168148  0.90895335  0.31589364     1.36900
C267        C  0.04968274  0.96275821  0.26790478     0.77400
O268        O  0.06382065  0.87185269  0.26855138    -0.61000
O269        O  0.01552483  0.86350092  0.31586739    -0.51900
C270        C  0.16388526  0.85782152  0.32644857     0.70100
O271        O  0.17075566  0.89026991  0.30918192    -0.46800
C272        C  0.05767652  0.95233350  0.37321914     0.74800
O273        O  0.09979180  0.95391556  0.27098110    -0.58700
O274        O  0.03071278  0.92205423  0.36405353    -0.48800
O275        O  0.01831724  0.94505833  0.28954278    -0.55100
C276        C  0.02582568  0.85284991  0.28394597     0.85000
O277        O  0.11804282  0.85494550  0.34160427    -0.57000
O278        O  0.10115652  0.95803198  0.35550337    -0.60300
In279      In  0.08528297  0.66597006  0.93392767     1.36900
C280        C  0.05887119  0.60950993  0.98117612     0.77000
O281        O  0.06850556  0.70159895  0.98234811    -0.61000
O282        O  0.01431762  0.70416910  0.43721404    -0.51900
C283        C  0.15592788  0.71285791  0.41725337     0.70100
O284        O  0.17220423  0.68966007  0.93865773    -0.46800
C285        C  0.05366604  0.61470209  0.37284836     0.74800
O286        O  0.10857210  0.61850686  0.97577404    -0.58700
O287        O  0.02719452  0.64551627  0.38177472    -0.48800
O288        O  0.02528164  0.62880863  0.96249152    -0.55100
C289        C  0.02841254  0.71943229  0.96832580     0.85000
O290        O  0.10909448  0.71430927  0.40344733    -0.57000
O291        O  0.09728504  0.60909817  0.39025084    -0.60300
In292      In  0.38979766  0.90893774  0.92500518     1.36900
C293        C  0.42383058  0.95778989  0.97605669     0.77400
O294        O  0.40027681  0.86834975  0.97088598    -0.61000
O295        O  0.43325405  0.85745070  0.43168082    -0.51900
C296        C  0.29179157  0.85611643  0.41635414     0.70100
O297        O  0.30024645  0.89256331  0.93292851    -0.46800
C298        C  0.40915610  0.95056125  0.37459486     0.74800
O299        O  0.37336908  0.95386716  0.96950413    -0.58700
O300        O  0.43345991  0.91978798  0.38587826    -0.48800
O301        O  0.45502480  0.93707362  0.95673253    -0.55100
C302        C  0.43420382  0.84618236  0.95509146     0.85000
O303        O  0.33634340  0.85595990  0.39931578    -0.57000
O304        O  0.36250801  0.95623005  0.38839468    -0.60300
In305      In  0.49641881  0.53988867  0.44450606     1.36900
C306        C  0.45005992  0.59583300  0.40293976     0.77400
O307        O  0.49206622  0.58107552  0.49022448    -0.61000
O308        O  0.05635918  0.55469941  0.33676425    -0.51900
C309        C  0.43587419  0.97877851  0.34943676     0.70100
O310        O  0.42152332  0.51321623  0.47141081    -0.46800
C311        C  0.03653816  0.98028882  0.40025087     0.74800
O312        O  0.42291253  0.56793073  0.41715019    -0.58700
O313        O  0.06155183  0.50877781  0.27359949    -0.48800
O314        O  0.50038470  0.59439368  0.40919961    -0.55100
C315        C  0.03189495  0.58597201  0.34655094     0.85000
O316        O  0.48548604  0.97564573  0.34111837    -0.57000
O317        O  0.48691652  0.98532410  0.26230629    -0.60300
In318      In  0.47927256  0.53927469  0.19893163     1.36900
C319        C  0.44671735  0.98407403  0.00362207     0.77400
O320        O  0.47696398  0.59319564  0.16238486    -0.61000
O321        O  0.06776082  0.55858066  0.02756862    -0.51900
C322        C  0.43710095  0.58721818  0.24787708     0.70100
O323        O  0.40630283  0.56786439  0.22712681    -0.46800
C324        C  0.02684605  0.99048368  0.24127819     0.74800
O325        O  0.40565381  0.51377663  0.16934757    -0.58700
O326        O  0.05420850  0.00883330  0.21753044    -0.48800
O327        O  0.49749869  0.98877366  0.00622363    -0.55100
C328        C  0.03848345  0.58006943  0.00735710     0.85000
O329        O  0.48731811  0.58151804  0.24327591    -0.57000
O330        O  0.49396573  0.97707171  0.08733767    -0.60300
C331        C  0.00100337  0.75262088  0.98667494    -0.00300
C332        C  0.02828119  0.77056590  0.01551060    -0.12200
C333        C  0.43087784  0.79258110  0.00289798     0.01900
C334        C  0.45642128  0.81019465  0.97253897    -0.00400
C335        C  0.49444637  0.79881173  0.46747338    -0.12100
C336        C  0.95586391  0.76306249  0.48076495     0.01800
H337        H  0.06716237  0.75893096  0.02445038     0.14800
H338        H  0.51189214  0.81282878  0.44366829     0.14800
C339        C  0.92150444  0.74704511  0.45293152     0.36400
C340        C  0.37879419  0.80591778  0.01654709     0.36300
N341        N  0.89384757  0.73435135  0.43062558    -0.43900
N342        N  0.33703532  0.81634108  0.02760878    -0.43900
C343        C  0.19195329  0.74886426  0.41735973    -0.00300
C344        C  0.16723100  0.78687793  0.41938582    -0.12200
C345        C  0.19829389  0.82222403  0.41968619     0.01900
C346        C  0.25547071  0.82024612  0.41656781    -0.00400
C347        C  0.28867430  0.78791869  0.91505574    -0.12100
C348        C  0.25581307  0.75362174  0.91770057     0.01800
H349        H  0.12323702  0.78902129  0.42107394     0.14800
H350        H  0.33237412  0.78431725  0.91278091     0.14800
C351        C  0.28161741  0.71493494  0.91651108     0.36400
C352        C  0.17030928  0.85998529  0.42235030     0.36300
N353        N  0.30222638  0.68388203  0.91539352    -0.43900
N354        N  0.14749047  0.89012448  0.42454154    -0.43900
C355        C  0.49761589  0.74849428  0.26948217    -0.00300
C356        C  0.52797673  0.77608023  0.28922220    -0.12200
C357        C  0.96919584  0.78980344  0.28475197     0.01900
C358        C  0.99751123  0.81997977  0.26573745    -0.00400
C359        C  0.52005926  0.78398581  0.21468596    -0.12100
C360        C  0.49723914  0.75088583  0.23157272     0.01800
H361        H  0.53037197  0.77342757  0.31835569     0.14800
H362        H  0.51766418  0.78666852  0.18554428     0.14800
C363        C  0.47416725  0.72001952  0.20930704     0.36400
C364        C  0.96081646  0.79128326  0.32321498     0.36300
N365        N  0.45626575  0.69525083  0.19128139    -0.43900
N366        N  0.95402469  0.79246527  0.35401725    -0.43900
C367        C  0.28128547  0.76055933  0.32881953    -0.00300
C368        C  0.22531902  0.75273195  0.32989487    -0.12200
C369        C  0.18702101  0.78385681  0.32944232     0.01900
C370        C  0.20420460  0.82429632  0.32727399    -0.00400
C371        C  0.26024857  0.83208981  0.32439804    -0.12100
C372        C  0.29867253  0.80081110  0.32526211     0.01800
H373        H  0.21133554  0.72204874  0.33188861     0.14800
H374        H  0.27416425  0.86271371  0.32176301     0.14800
C375        C  0.35552555  0.81078415  0.32070111     0.36400
C376        C  0.13018301  0.77292990  0.33036264     0.36300
N377        N  0.40102104  0.81881103  0.31674347    -0.43900
N378        N  0.08481656  0.76365220  0.33120525    -0.43900
In379      In  0.40242634  0.66460950  0.81912533     1.36900
C380        C  0.43127251  0.61049279  0.77022466     0.77400
O381        O  0.42971025  0.69922250  0.77191402    -0.61000
O382        O  0.46783964  0.71088587  0.82236202    -0.51900
C383        C  0.32117040  0.71833821  0.82757383     0.70100
O384        O  0.31418863  0.68589654  0.81069896    -0.46800
C385        C  0.42582883  0.61801597  0.87518886     0.74800
O386        O  0.38151631  0.61976006  0.77482267    -0.58700
O387        O  0.45465214  0.64735134  0.86563131    -0.48800
O388        O  0.46395337  0.62825433  0.79056993    -0.55100
C389        C  0.46437460  0.71915359  0.78918159     0.85000
O390        O  0.36645727  0.72027816  0.84326029    -0.57000
O391        O  0.38071689  0.61531883  0.85907521    -0.60300
In392      In  0.09024099  0.90891492  0.82026593     1.36900
C393        C  0.06498939  0.96445325  0.77199711     0.77400
O394        O  0.07440189  0.87567539  0.77060550    -0.61000
O395        O  0.02228825  0.86577897  0.81605344    -0.51900
C396        C  0.16708057  0.85257166  0.82942098     0.70100
O397        O  0.17762395  0.88622689  0.81504258    -0.46800
C398        C  0.06156606  0.95196439  0.87729753     0.74800
O399        O  0.11462632  0.95700027  0.77900844    -0.58700
O400        O  0.03415217  0.92283008  0.86598516    -0.48800
O401        O  0.03098737  0.94473381  0.79014602    -0.55100
C402        C  0.03442268  0.85690025  0.78390851     0.85000
O403        O  0.12017640  0.85055325  0.84325398    -0.57000
O404        O  0.10781026  0.95601783  0.86251608    -0.60300
In405      In  0.07876334  0.65872752  0.42966363     1.36900
C406        C  0.04537735  0.60530816  0.47698280     0.77000
O407        O  0.07107742  0.69367715  0.47977783    -0.61000
O408        O  0.01595201  0.70813968  0.93698973    -0.51900
C409        C  0.16152338  0.72195907  0.92199801     0.70100
O410        O  0.16675145  0.68005391  0.43314235    -0.46800
C411        C  0.06049517  0.62278764  0.87674006     0.74800
O412        O  0.09602694  0.61163520  0.47215746    -0.58700
O413        O  0.03253868  0.65211543  0.88724068    -0.48800
O414        O  0.01389448  0.62499340  0.45692944    -0.55100
C415        C  0.03084864  0.71354227  0.46835537     0.85000
O416        O  0.11466768  0.72287782  0.90835060    -0.57000
O417        O  0.10559557  0.61838710  0.89266337    -0.60300
In418      In  0.37321189  0.90638619  0.42949377     1.36900
C419        C  0.40598465  0.95823167  0.47842766     0.77400
O420        O  0.38100827  0.86659365  0.47706393    -0.61000
O421        O  0.44771363  0.85739604  0.92363452    -0.51900
C422        C  0.30472189  0.86129525  0.91396406     0.70100
O423        O  0.28448422  0.88683200  0.43573145    -0.46800
C424        C  0.42052029  0.95659663  0.87105695     0.74800
O425        O  0.35590033  0.95608678  0.46996422    -0.58700
O426        O  0.44735961  0.92627262  0.88076605    -0.48800
O427        O  0.43675628  0.93413803  0.46234829    -0.55100
C428        C  0.41847922  0.84611943  0.46282342     0.85000
O429        O  0.34852243  0.85927961  0.89615970    -0.57000
O430        O  0.37431230  0.96003276  0.88599042    -0.60300
In431      In  0.49004293  0.53239782  0.94450566     1.36900
C432        C  0.44656913  0.58788502  0.90074077     0.77400
O433        O  0.48461387  0.57470526  0.98966576    -0.61000
O434        O  0.06390703  0.56450197  0.83841147    -0.51900
C435        C  0.44380465  0.98671130  0.84623858     0.70100
O436        O  0.41393915  0.50811253  0.97254983    -0.46800
C437        C  0.03817911  0.98067569  0.90312718     0.74800
O438        O  0.41917001  0.55868551  0.91248673    -0.58700
O439        O  0.06615385  0.51564481  0.77768289    -0.48800
O440        O  0.49530494  0.58826399  0.91106795    -0.55100
C441        C  0.03847634  0.59438247  0.85042104     0.85000
O442        O  0.49365899  0.98691652  0.83811578    -0.57000
O443        O  0.48904015  0.99254769  0.76260088    -0.60300
In444      In  0.49745802  0.53514159  0.69376761     1.36900
C445        C  0.42953162  0.98580573  0.50471784     0.77400
O446        O  0.49645405  0.59155194  0.66141654    -0.61000
O447        O  0.05044041  0.55836385  0.52630083    -0.51900
C448        C  0.45238701  0.58260681  0.74304198     0.70100
O449        O  0.42335565  0.56283684  0.72149020    -0.46800
C450        C  0.04498078  0.99215285  0.74434660     0.74800
O451        O  0.42393164  0.51233475  0.66211455    -0.58700
O452        O  0.07412500  0.01537679  0.72546549    -0.48800
O453        O  0.48009165  0.98610897  0.51023772    -0.55100
C454        C  0.02241666  0.57882369  0.50456169     0.85000
O455        O  0.50299175  0.57743943  0.73938376    -0.57000
O456        O  0.48080341  0.98087862  0.59005229    -0.60300
C457        C  0.00677967  0.74625306  0.48950276    -0.00300
C458        C  0.03690541  0.76241884  0.51807184    -0.12200
C459        C  0.42250441  0.79375544  0.51235955     0.01900
C460        C  0.44461564  0.81222791  0.48124678    -0.00400
C461        C  0.50500937  0.79380060  0.95934151    -0.12100
C462        C  0.95128770  0.76894365  0.97457544     0.01800
H463        H  0.07617614  0.74972062  0.52508259     0.14800
H464        H  0.52456293  0.80685176  0.93582725     0.14800
C465        C  0.92143318  0.75252166  0.94471544     0.36400
C466        C  0.37022917  0.80499301  0.52718715     0.36300
N467        N  0.89746425  0.73978640  0.92062981    -0.43900
N468        N  0.32835730  0.81379662  0.53919687    -0.43900
C469        C  0.19875417  0.75733846  0.92004041    -0.00300
C470        C  0.17612396  0.79613736  0.92105969    -0.12200
C471        C  0.20928019  0.83055652  0.91969191     0.01900
C472        C  0.26620315  0.82669102  0.91567865    -0.00400
C473        C  0.28021183  0.78220224  0.41537844    -0.12100
C474        C  0.24927027  0.74682015  0.41643055     0.01800
H475        H  0.13242471  0.79960398  0.92344886     0.14800
H476        H  0.32423585  0.78002525  0.41389500     0.14800
C477        C  0.27731316  0.70898609  0.41494863     0.36400
C478        C  0.18383797  0.86933703  0.92174625     0.36300
N479        N  0.29999935  0.67873002  0.41361943    -0.43900
N480        N  0.16340232  0.90041416  0.92352713    -0.43900
C481        C  0.49556435  0.75125009  0.77179317    -0.00300
C482        C  0.50639763  0.78598582  0.79127940    -0.12200
C483        C  0.95749656  0.80795853  0.77563828     0.01900
C484        C  0.00625387  0.82580275  0.76347344    -0.00400
C485        C  0.52550435  0.78450175  0.71716502    -0.12100
C486        C  0.50783733  0.74999526  0.73473719     0.01800
H487        H  0.49866359  0.78660133  0.82004409     0.14800
H488        H  0.53473488  0.78350711  0.68856654     0.14800
C489        C  0.50438084  0.71338751  0.71450787     0.36400
C490        C  0.92868012  0.82139880  0.80730724     0.36300
N491        N  0.50216144  0.68390263  0.69850267    -0.43900
N492        N  0.90546314  0.83187271  0.83272307    -0.43900
C493        C  0.28143117  0.75257051  0.82774403    -0.00300
C494        C  0.22503797  0.74547665  0.82728336    -0.12200
C495        C  0.18722811  0.77730794  0.82817876     0.01900
C496        C  0.20545531  0.81761518  0.82888080    -0.00400
C497        C  0.26161233  0.82458572  0.82777680    -0.12100
C498        C  0.29924910  0.79292689  0.82777766     0.01800
H499        H  0.21036460  0.71494454  0.82681873     0.14800
H500        H  0.27638722  0.85511198  0.82784945     0.14800
C501        C  0.35605396  0.80347729  0.82788444     0.36400
C502        C  0.12999098  0.76754149  0.82699192     0.36300
N503        N  0.40106853  0.81348189  0.82849661    -0.43900
N504        N  0.08421780  0.75939286  0.82588046    -0.43900
In505      In  0.88598623  0.16160569  0.32443599     1.36900
C506        C  0.91324590  0.10985415  0.27386399     0.77400
O507        O  0.90111411  0.19672208  0.27576675    -0.61000
O508        O  0.95109815  0.20767292  0.32161356    -0.51900
C509        C  0.80841257  0.21673549  0.33402545     0.70100
O510        O  0.79847966  0.18391110  0.31838700    -0.46800
C511        C  0.91707711  0.11592245  0.37934510     0.74800
O512        O  0.86340346  0.11538715  0.28190181    -0.58700
O513        O  0.94388175  0.14561549  0.36815021    -0.48800
O514        O  0.94665193  0.12931612  0.29231957    -0.55100
C515        C  0.93909804  0.21680056  0.28943831     0.85000
O516        O  0.85389528  0.21758488  0.34963882    -0.57000
O517        O  0.87008395  0.11246418  0.36576503    -0.60300
In518      In  0.58590350  0.40989020  0.31927654     1.36900
C519        C  0.55081290  0.46300718  0.27204805     0.77400
O520        O  0.57390584  0.37345772  0.27103616    -0.61000
O521        O  0.52387005  0.36201883  0.31735707    -0.51900
C522        C  0.66462642  0.35639069  0.33025837     0.70100
O523        O  0.67350567  0.38807886  0.31210378    -0.46800
C524        C  0.56106111  0.45553142  0.37482196     0.74800
O525        O  0.60161909  0.45759283  0.27676029    -0.58700
O526        O  0.53225060  0.42625965  0.36524263    -0.48800
O527        O  0.52000328  0.44175632  0.29137136    -0.55100
C528        C  0.53738699  0.35217225  0.28563446     0.85000
O529        O  0.61964670  0.35622757  0.34684023    -0.57000
O530        O  0.60677448  0.45839919  0.35906362    -0.60300
In531      In  0.58411253  0.16590875  0.93030199     1.36900
C532        C  0.55590016  0.11055627  0.97754106     0.77000
O533        O  0.57376380  0.20157442  0.97962278    -0.61000
O534        O  0.52577089  0.20748848  0.42688384    -0.51900
C535        C  0.67080882  0.20984666  0.41868605     0.70100
O536        O  0.67127407  0.18762665  0.93641031    -0.46800
C537        C  0.56051206  0.11279422  0.37426919     0.74800
O538        O  0.60571931  0.11614442  0.96952488    -0.58700
O539        O  0.53533017  0.14441394  0.38220292    -0.48800
O540        O  0.52255275  0.13273703  0.96135425    -0.55100
C541        C  0.53433189  0.22129476  0.96690797     0.85000
O542        O  0.62890563  0.20926249  0.39919663    -0.57000
O543        O  0.60483104  0.10754117  0.39095037    -0.60300
In544      In  0.88310044  0.41181509  0.92720787     1.36900
C545        C  0.92041865  0.45959087  0.97796886     0.77400
O546        O  0.89223885  0.37146038  0.97334438    -0.61000
O547        O  0.94868785  0.35976080  0.42684485    -0.51900
C548        C  0.80403244  0.35393015  0.41762887     0.70100
O549        O  0.79355938  0.39401041  0.93418559    -0.46800
C550        C  0.91496680  0.45183028  0.37452306     0.74800
O551        O  0.86951747  0.45547785  0.97299117    -0.58700
O552        O  0.94312189  0.42355577  0.38694940    -0.48800
O553        O  0.95042557  0.43998496  0.95697186    -0.55100
C554        C  0.92931499  0.35126155  0.95846029     0.85000
O555        O  0.84750736  0.35494662  0.39949601    -0.57000
O556        O  0.86765187  0.45463600  0.38796793    -0.60300
In557      In  0.99227491  0.03258646  0.44622648     1.36900
C558        C  0.94186218  0.08636276  0.40388950     0.77400
O559        O  0.99154804  0.07677237  0.48988693    -0.61000
O560        O  0.56060775  0.05208856  0.33924554    -0.51900
C561        C  0.93814447  0.48020855  0.34814970     0.70100
O562        O  0.91883488  0.00724390  0.47596896    -0.46800
C563        C  0.53987005  0.48550584  0.40011342     0.74800
O564        O  0.91676038  0.05725737  0.41784497    -0.58700
O565        O  0.56458345  0.00710255  0.27786488    -0.48800
O566        O  0.99185187  0.08731799  0.41113014    -0.55100
C567        C  0.53667967  0.08333636  0.34962026     0.85000
O568        O  0.98758572  0.47876738  0.33918763    -0.57000
O569        O  0.98402609  0.48498893  0.26044403    -0.60300
In570      In  0.97880049  0.03908618  0.19438585     1.36900
C571        C  0.94490329  0.48465883  0.00581686     0.77400
O572        O  0.97685528  0.09330412  0.15835001    -0.61000
O573        O  0.56554670  0.05706192  0.02088543    -0.51900
C574        C  0.93381567  0.08433271  0.24493800     0.70100
O575        O  0.90474995  0.06256693  0.22508856    -0.46800
C576        C  0.52704321  0.49088268  0.24595575     0.74800
O577        O  0.90543330  0.01701325  0.16214189    -0.58700
O578        O  0.55455012  0.51281230  0.22494381    -0.48800
O579        O  0.99585353  0.48920105  0.00761237    -0.55100
C580        C  0.53582844  0.08149491  0.00394315     0.85000
O581        O  0.98413605  0.08312885  0.23820346    -0.57000
O582        O  0.99316077  0.47350960  0.08807259    -0.60300
C583        C  0.50899817  0.25417260  0.98702932    -0.00300
C584        C  0.53380312  0.26721446  0.01893448    -0.12200
C585        C  0.92269617  0.29144416  0.99902266     0.01900
C586        C  0.95373146  0.31697289  0.97656892    -0.00400
C587        C  0.01620351  0.30254210  0.46447381    -0.12100
C588        C  0.46225292  0.26967586  0.46600838     0.01800
H589        H  0.56992690  0.25221361  0.02895022     0.14800
H590        H  0.03821392  0.32339741  0.44731237     0.14800
C591        C  0.42765175  0.24993292  0.44031664     0.36400
C592        C  0.86438527  0.29576925  0.00298577     0.36300
N593        N  0.39965184  0.23411371  0.41989131    -0.43900
N594        N  0.81774697  0.29935780  0.00635931    -0.43900
C595        C  0.70651339  0.24593022  0.41983260    -0.00300
C596        C  0.68115614  0.28376976  0.41911502    -0.12200
C597        C  0.71166306  0.31931990  0.41936408     0.01900
C598        C  0.76888796  0.31762319  0.41833905    -0.00400
C599        C  0.78723422  0.28798333  0.92050497    -0.12100
C600        C  0.75551174  0.25298461  0.92143544     0.01800
H601        H  0.63706308  0.28559517  0.41860928     0.14800
H602        H  0.83117994  0.28531672  0.92069286     0.14800
C603        C  0.78271373  0.21476321  0.92207481     0.36400
C604        C  0.68342632  0.35710903  0.41946332     0.36300
N605        N  0.80434592  0.18404832  0.92228081    -0.43900
N606        N  0.66095189  0.38749321  0.41947523    -0.43900
C607        C  0.96685292  0.24866322  0.26927011    -0.00300
C608        C  0.01585446  0.26374648  0.28269686    -0.12200
C609        C  0.46584929  0.29888447  0.27835958     0.01900
C610        C  0.51458027  0.31739730  0.26710279    -0.00400
C611        C  0.97197285  0.29585106  0.21963998    -0.12100
C612        C  0.94518702  0.26460430  0.23704060     0.01800
H613        H  0.03331909  0.25112376  0.30701560     0.14800
H614        H  0.95448062  0.30840577  0.19530400     0.14800
C615        C  0.89516698  0.25030027  0.22132611     0.36400
C616        C  0.43248592  0.31462934  0.30707145     0.36300
N617        N  0.85523580  0.23868333  0.20869214    -0.43900
N618        N  0.40548411  0.32726825  0.32992627    -0.43900
C619        C  0.77198555  0.25266381  0.33227026    -0.00300
C620        C  0.71530108  0.24788838  0.33231585    -0.12200
C621        C  0.68017483  0.28114548  0.33218193     0.01900
C622        C  0.70140301  0.32061059  0.33041109    -0.00400
C623        C  0.75805820  0.32532042  0.32811577    -0.12100
C624        C  0.79324953  0.29207407  0.32961817     0.01800
H625        H  0.69829250  0.21803382  0.33381325     0.14800
H626        H  0.77504601  0.35515882  0.32622371     0.14800
C627        C  0.85113089  0.29953405  0.32797042     0.36400
C628        C  0.62233303  0.27361926  0.33445499     0.36300
N629        N  0.89741127  0.30601012  0.32686935    -0.43900
N630        N  0.57609643  0.26737350  0.33688481    -0.43900
In631      In  0.89131707  0.16050370  0.82021098     1.36900
C632        C  0.92567707  0.11059141  0.77040829     0.77400
O633        O  0.89966091  0.19943617  0.77293600    -0.61000
O634        O  0.95377201  0.20776276  0.81749447    -0.51900
C635        C  0.81315198  0.21313830  0.83367729     0.70100
O636        O  0.80348826  0.18137785  0.81619908    -0.46800
C637        C  0.92021721  0.11477452  0.87487526     0.74800
O638        O  0.87487906  0.11526095  0.77598861    -0.58700
O639        O  0.94700418  0.14498377  0.86479641    -0.48800
O640        O  0.95647390  0.13046837  0.79044569    -0.55100
C641        C  0.93768759  0.21944735  0.78681218     0.85000
O642        O  0.85884053  0.21357041  0.84907006    -0.57000
O643        O  0.87447085  0.11033722  0.85973070    -0.60300
In644      In  0.58907291  0.40497242  0.81805881     1.36900
C645        C  0.56332609  0.45859238  0.76860884     0.77400
O646        O  0.57494754  0.36847654  0.76957443    -0.61000
O647        O  0.52299979  0.35985721  0.81516141    -0.51900
C648        C  0.66712465  0.35104493  0.83051029     0.70100
O649        O  0.67722216  0.38341032  0.81379674    -0.46800
C650        C  0.55903351  0.45011422  0.87372255     0.74800
O651        O  0.61309924  0.45162338  0.77561654    -0.58700
O652        O  0.53129434  0.42115704  0.86237982    -0.48800
O653        O  0.52953367  0.43883346  0.78687704    -0.55100
C654        C  0.53556723  0.34953373  0.78345842     0.85000
O655        O  0.62054781  0.34985777  0.84491417    -0.57000
O656        O  0.60566113  0.45345228  0.85932006    -0.60300
In657      In  0.58835097  0.15926030  0.42859499     1.36900
C658        C  0.55277281  0.10793450  0.47757455     0.77000
O659        O  0.57426917  0.19938157  0.47407714    -0.61000
O660        O  0.51949655  0.21134790  0.93558623    -0.51900
C661        C  0.66201465  0.21981859  0.91923100     0.70100
O662        O  0.67569275  0.17966055  0.43924447    -0.46800
C663        C  0.55650823  0.12299768  0.87339941     0.74800
O664        O  0.60341287  0.11099503  0.47078915    -0.58700
O665        O  0.52870121  0.15221128  0.88446766    -0.48800
O666        O  0.52250043  0.13099810  0.45984294    -0.55100
C667        C  0.53819189  0.21953482  0.45804406     0.85000
O668        O  0.61660528  0.22072060  0.90350265    -0.57000
O669        O  0.60206285  0.11856073  0.88872558    -0.60300
In670      In  0.88369997  0.40585691  0.42959884     1.36900
C671        C  0.90959259  0.45654347  0.48154663     0.77400
O672        O  0.89632772  0.36170939  0.47300308    -0.61000
O673        O  0.94442664  0.36309119  0.92750917    -0.51900
C674        C  0.80029763  0.36176537  0.91682625     0.70100
O675        O  0.79662235  0.38409417  0.43759136    -0.46800
C676        C  0.91379517  0.45917988  0.87316867     0.74800
O677        O  0.86068615  0.45376570  0.47090893    -0.58700
O678        O  0.93705769  0.42655009  0.88054208    -0.48800
O679        O  0.94258023  0.43350087  0.46620342    -0.55100
C680        C  0.93442373  0.34413877  0.45652505     0.85000
O681        O  0.84486170  0.35990743  0.89988970    -0.57000
O682        O  0.86961604  0.46513648  0.89009603    -0.60300
In683      In  0.98981914  0.03459876  0.94631975     1.36900
C684        C  0.94346452  0.08602761  0.90050944     0.77400
O685        O  0.98361392  0.08106436  0.98843312    -0.61000
O686        O  0.56079754  0.06498902  0.83516677    -0.51900
C687        C  0.93965867  0.48884194  0.84895934     0.70100
O688        O  0.91252117  0.01134516  0.97311608    -0.46800
C689        C  0.53617117  0.47897369  0.89970310     0.74800
O690        O  0.91744215  0.05716686  0.91404209    -0.58700
O691        O  0.56562925  0.02032602  0.77189748    -0.48800
O692        O  0.99269358  0.08777137  0.90966988    -0.55100
C693        C  0.53470232  0.09465475  0.84691529     0.85000
O694        O  0.98853031  0.48547064  0.83905325    -0.57000
O695        O  0.98660773  0.49642961  0.76333744    -0.60300
In696      In  0.99992851  0.03933142  0.69494284     1.36900
C697        C  0.92986034  0.48426336  0.50884560     0.77400
O698        O  0.00081344  0.09555307  0.66141122    -0.61000
O699        O  0.55503886  0.05586552  0.52281804    -0.51900
C700        C  0.94989429  0.08495525  0.74286932     0.70100
O701        O  0.92312808  0.06468323  0.72052610    -0.46800
C702        C  0.54290762  0.48656082  0.74143928     0.74800
O703        O  0.92613748  0.01570420  0.66485437    -0.58700
O704        O  0.57216195  0.50805835  0.72102344    -0.48800
O705        O  0.97981242  0.48475274  0.51634662    -0.55100
C706        C  0.52848899  0.08047288  0.50394852     0.85000
O707        O  0.00096364  0.08212157  0.73998225    -0.57000
O708        O  0.97418326  0.48324880  0.59446440    -0.60300
C709        C  0.51439513  0.25508837  0.47479048    -0.00300
C710        C  0.54548162  0.27471966  0.50086468    -0.12200
C711        C  0.93201203  0.28100093  0.49330133     0.01900
C712        C  0.96065766  0.30836720  0.47123910    -0.00400
C713        C  0.00995412  0.31151885  0.97337873    -0.12100
C714        C  0.46159497  0.27353866  0.97473649     0.01800
H715        H  0.58611018  0.26410138  0.50727367     0.14800
H716        H  0.03393348  0.33192062  0.95691956     0.14800
C717        C  0.43085495  0.25977099  0.94420488     0.36400
C718        C  0.87382056  0.28362085  0.49887582     0.36300
N719        N  0.40552043  0.24865774  0.92008477    -0.43900
N720        N  0.82721637  0.28545954  0.50342909    -0.43900
C721        C  0.69832657  0.25562294  0.91979512    -0.00300
C722        C  0.67418670  0.29390770  0.91970324    -0.12200
C723        C  0.70594592  0.32896325  0.92003772     0.01900
C724        C  0.76322987  0.32630095  0.91903045    -0.00400
C725        C  0.79431788  0.27985138  0.41996899    -0.12100
C726        C  0.76374590  0.24432461  0.42215749     0.01800
H727        H  0.63022044  0.29649998  0.91943496     0.14800
H728        H  0.83843311  0.27812879  0.42050502     0.14800
C729        C  0.79203574  0.20687346  0.42668358     0.36400
C730        C  0.67867353  0.36710255  0.91983303     0.36300
N731        N  0.81499225  0.17701345  0.43078762    -0.43900
N732        N  0.65643112  0.39756642  0.91956479    -0.43900
C733        C  0.96129177  0.25414287  0.76861137    -0.00300
C734        C  0.01543838  0.26392964  0.77589858    -0.12200
C735        C  0.47268084  0.28992981  0.78129738     0.01900
C736        C  0.50765345  0.31738226  0.76389021    -0.00400
C737        C  0.95567189  0.31005966  0.72712379    -0.12100
C738        C  0.93074728  0.27784148  0.74448188     0.01800
H739        H  0.03891011  0.24575539  0.79453622     0.14800
H740        H  0.93220734  0.32833091  0.70857118     0.14800
C741        C  0.87331227  0.27110379  0.73856285     0.36400
C742        C  0.45947563  0.29232630  0.81911635     0.36300
N743        N  0.82724321  0.26567713  0.73424913    -0.43900
N744        N  0.44888274  0.29393789  0.84942727    -0.43900
C745        C  0.77632162  0.24870911  0.83375799    -0.00300
C746        C  0.72001221  0.24335080  0.83076957    -0.12200
C747        C  0.68433201  0.27615408  0.82994976     0.01900
C748        C  0.70463590  0.31580397  0.83136501    -0.00400
C749        C  0.76119414  0.32127707  0.83273303    -0.12100
C750        C  0.79691366  0.28838610  0.83455256     0.01800
H751        H  0.70364066  0.21330806  0.82947871     0.14800
H752        H  0.77751522  0.35135979  0.83340341     0.14800
C753        C  0.85454411  0.29649054  0.83720188     0.36400
C754        C  0.62701321  0.26788238  0.82634208     0.36300
N755        N  0.90059742  0.30324220  0.83974827    -0.43900
N756        N  0.58123415  0.26054616  0.82344220    -0.43900
In757      In  0.88687095  0.65881064  0.17763919     1.36900
C758        C  0.91964407  0.61264449  0.12342721     0.77400
O759        O  0.94769006  0.70778264  0.17914084    -0.61000
O760        O  0.89909804  0.69591858  0.22586017    -0.51900
C761        C  0.80811302  0.71205588  0.16565440     0.70100
O762        O  0.85332060  0.71236000  0.14938338    -0.46800
C763        C  0.91588705  0.60618249  0.22706803     0.74800
O764        O  0.87207583  0.60971896  0.13657894    -0.58700
O765        O  0.94848666  0.62755167  0.20926405    -0.48800
O766        O  0.94660250  0.64203727  0.13473853    -0.55100
C767        C  0.93424273  0.71796301  0.21075531     0.85000
O768        O  0.79878488  0.68017365  0.18337828    -0.57000
O769        O  0.86572168  0.61141470  0.21995355    -0.60300
In770      In  0.59865864  0.91016723  0.17943366     1.36900
C771        C  0.56732118  0.95284911  0.12318442     0.77400
O772        O  0.54156937  0.86032238  0.18590034    -0.61000
O773        O  0.59916200  0.87263884  0.22784890    -0.51900
C774        C  0.67621086  0.85749603  0.16538169     0.70100
O775        O  0.68663174  0.88948005  0.18244432    -0.46800
C776        C  0.56198096  0.95959209  0.22919036     0.74800
O777        O  0.61295676  0.95888331  0.13808087    -0.58700
O778        O  0.53188598  0.93731399  0.21067026    -0.48800
O779        O  0.54134928  0.92285529  0.13479172    -0.55100
C780        C  0.56222267  0.85013295  0.21587279     0.85000
O781        O  0.63027501  0.85718223  0.15023035    -0.57000
O782        O  0.61261273  0.95782851  0.22174961    -0.60300
In783      In  0.58179237  0.66091034  0.06941250     1.36900
C784        C  0.55060286  0.61958414  0.12715579     0.77000
O785        O  0.51534080  0.70469486  0.06129788    -0.61000
O786        O  0.57229358  0.70134692  0.52142153    -0.51900
C787        C  0.66703793  0.72139289  0.58009787     0.70100
O788        O  0.61024760  0.71837489  0.09295932    -0.46800
C789        C  0.56368111  0.61252909  0.52093718     0.74800
O790        O  0.59699746  0.61447501  0.11282717    -0.58700
O791        O  0.53043039  0.62992148  0.54135895    -0.48800
O792        O  0.52398821  0.64879565  0.11481396    -0.55100
C793        C  0.53174544  0.71392180  0.02992566     0.85000
O794        O  0.67757026  0.68940347  0.56323783    -0.57000
O795        O  0.61349717  0.62135138  0.52569349    -0.60300
In796      In  0.87918374  0.91136313  0.07033834     1.36900
C797        C  0.90620515  0.95735535  0.12539483     0.77400
O798        O  0.94394071  0.86574631  0.06936026    -0.61000
O799        O  0.90814649  0.86900412  0.52990346    -0.51900
C800        C  0.81350581  0.85867267  0.58692151     0.70100
O801        O  0.84618177  0.85617757  0.09665772    -0.46800
C802        C  0.92667721  0.95923021  0.52440635     0.74800
O803        O  0.86146045  0.96222490  0.10906473    -0.58700
O804        O  0.95906836  0.93846003  0.54276401    -0.48800
O805        O  0.93209106  0.92629497  0.11674207    -0.55100
C806        C  0.93163248  0.85464647  0.03787338     0.85000
O807        O  0.80734094  0.89038216  0.56853616    -0.57000
O808        O  0.87661614  0.95483728  0.53224911    -0.60300
In809      In  0.98572036  0.53208692  0.30247231     1.36900
C810        C  0.93786141  0.57846805  0.25395226     0.77400
O811        O  0.98483232  0.58957176  0.33374070    -0.61000
O812        O  0.57151614  0.56638797  0.47124319    -0.51900
C813        C  0.94797953  0.98568617  0.49617135     0.70100
O814        O  0.91201007  0.50855038  0.33385991    -0.46800
C815        C  0.53773436  0.98477385  0.25722461     0.74800
O816        O  0.90973609  0.55740579  0.27539453    -0.58700
O817        O  0.56802961  0.51318435  0.41346690    -0.48800
O818        O  0.98868816  0.57496621  0.25740348    -0.55100
C819        C  0.54270365  0.58566505  0.49343559     0.85000
O820        O  0.99852794  0.98814261  0.49042607    -0.57000
O821        O  0.98848722  0.97777397  0.41194611    -0.60300
In822      In  0.99339085  0.53000837  0.05475422     1.36900
C823        C  0.92991765  0.98659526  0.15041845     0.77400
O824        O  0.98797089  0.57516745  0.01137329    -0.61000
O825        O  0.55249794  0.56348989  0.16814913    -0.51900
C826        C  0.94435655  0.58301980  0.09885784     0.70100
O827        O  0.91859160  0.55496457  0.08419440    -0.46800
C828        C  0.54311504  0.98006078  0.09645856     0.74800
O829        O  0.91795145  0.50296988  0.02957142    -0.58700
O830        O  0.56789504  0.00925463  0.08241872    -0.48800
O831        O  0.97857941  0.98380068  0.16054455    -0.55100
C832        C  0.52661385  0.59184883  0.15378520     0.85000
O833        O  0.99457245  0.58300002  0.09191154    -0.57000
O834        O  0.97631710  0.99705810  0.24052937    -0.60300
C835        C  0.50557365  0.74539995  0.00832109    -0.00300
C836        C  0.45578595  0.76071251  0.02049463    -0.12200
C837        C  0.00761393  0.80471929  0.03181313     0.01900
C838        C  0.95752583  0.82054956  0.02016060    -0.00400
C839        C  0.93715483  0.79620206  0.49950993    -0.12100
C840        C  0.52340812  0.76853267  0.48448378     0.01800
H841        H  0.43623406  0.74794597  0.04414500     0.14800
H842        H  0.89782921  0.80876000  0.49241993     0.14800
C843        C  0.57595855  0.75821486  0.46955097     0.36400
C844        C  0.04034975  0.82410180  0.05876748     0.36300
N845        N  0.61810263  0.75017478  0.45754257    -0.43900
N846        N  0.06686592  0.83994031  0.08002020    -0.43900
C847        C  0.70401198  0.75684174  0.58103391    -0.00300
C848        C  0.76051608  0.75128035  0.58193289    -0.12200
C849        C  0.79616722  0.78397106  0.58461312     0.01900
C850        C  0.77575474  0.82365740  0.58530727    -0.00400
C851        C  0.70832988  0.82533850  0.07742454    -0.12100
C852        C  0.67322861  0.79207670  0.07739678     0.01800
H853        H  0.77686531  0.72123655  0.58169772     0.14800
H854        H  0.69129289  0.85519460  0.07650368     0.14800
C855        C  0.61554106  0.79964116  0.07432401     0.36400
C856        C  0.85376823  0.77559091  0.58651975     0.36300
N857        N  0.56939145  0.80598128  0.07165629    -0.43900
N858        N  0.89976050  0.76842498  0.58860352    -0.43900
C859        C  0.95633922  0.75341948  0.22881250    -0.00300
C860        C  0.94954413  0.75669160  0.26622174    -0.12200
C861        C  0.55261188  0.80849308  0.27214636     0.01900
C862        C  0.54509782  0.81394201  0.23480669    -0.00400
C863        C  0.00229238  0.81747692  0.22817404    -0.12100
C864        C  0.98142442  0.78489861  0.20956121     0.01800
H865        H  0.92909848  0.73312884  0.28119128     0.14800
H866        H  0.02252349  0.84111373  0.21318099     0.14800
C867        C  0.98472100  0.78546175  0.17075505     0.36400
C868        C  0.58339327  0.83604006  0.29383895     0.36300
N869        N  0.98696166  0.78608194  0.13966139    -0.43900
N870        N  0.60856968  0.85772042  0.31129254    -0.43900
C871        C  0.77285542  0.74853630  0.16659647    -0.00300
C872        C  0.79847137  0.78620946  0.16869972    -0.12200
C873        C  0.76822460  0.82195680  0.16945159     0.01900
C874        C  0.71111843  0.82082161  0.16614064    -0.00400
C875        C  0.68536949  0.78308673  0.16535887    -0.12100
C876        C  0.71549379  0.74725935  0.16640456     0.01800
H877        H  0.84253388  0.78773852  0.17016248     0.14800
H878        H  0.64129734  0.78149800  0.16413814     0.14800
C879        C  0.68671536  0.70970934  0.16569404     0.36400
C880        C  0.79673236  0.85939304  0.17297535     0.36300
N881        N  0.66361577  0.67960900  0.16494227    -0.43900
N882        N  0.81923478  0.88955782  0.17585459    -0.43900
In883      In  0.88797506  0.66608268  0.67929212     1.36900
C884        C  0.91133653  0.61958034  0.62391748     0.77400
O885        O  0.95061347  0.71394983  0.67769943    -0.61000
O886        O  0.90306410  0.70465474  0.72543296    -0.51900
C887        C  0.80843628  0.71891550  0.66958755     0.70100
O888        O  0.85271798  0.71948973  0.65231404    -0.46800
C889        C  0.92184947  0.61515659  0.72908322     0.74800
O890        O  0.86661754  0.61635058  0.64079304    -0.58700
O891        O  0.95316582  0.63448592  0.70851603    -0.48800
O892        O  0.94004027  0.64919650  0.63266380    -0.55100
C893        C  0.93870835  0.72527762  0.70926216     0.85000
O894        O  0.80033844  0.68707947  0.68760547    -0.57000
O895        O  0.87129574  0.62116398  0.72412966    -0.60300
In896      In  0.59345791  0.91438540  0.67989872     1.36900
C897        C  0.55678019  0.95672343  0.62410508     0.77400
O898        O  0.53736248  0.86259390  0.68406747    -0.61000
O899        O  0.58432174  0.87957881  0.73001002    -0.51900
C900        C  0.67449838  0.86302989  0.66892962     0.70100
O901        O  0.68199622  0.89472905  0.68691311    -0.46800
C902        C  0.56190499  0.96708384  0.72810186     0.74800
O903        O  0.60415059  0.96207750  0.63662576    -0.58700
O904        O  0.53067495  0.94278905  0.71280284    -0.48800
O905        O  0.53164872  0.92724354  0.63740456    -0.55100
C906        C  0.55108029  0.85535196  0.71631024     0.85000
O907        O  0.63031439  0.86243865  0.65174482    -0.57000
O908        O  0.61174780  0.96521495  0.71864706    -0.60300
In909      In  0.59078786  0.66588428  0.56952297     1.36900
C910        C  0.56695960  0.61921282  0.62510613     0.77000
O911        O  0.52107754  0.70873057  0.56746729    -0.61000
O912        O  0.57278776  0.69480786  0.01889331    -0.51900
C913        C  0.65778755  0.71670539  0.08004069     0.70100
O914        O  0.62098264  0.72166421  0.59520890    -0.46800
C915        C  0.55558360  0.60574189  0.02177630     0.74800
O916        O  0.61127390  0.61515303  0.60796383    -0.58700
O917        O  0.52189827  0.62446315  0.04088170    -0.48800
O918        O  0.53979343  0.64987016  0.61686768    -0.55100
C919        C  0.53237452  0.71923616  0.53548034     0.85000
O920        O  0.66987314  0.68300749  0.06654436    -0.57000
O921        O  0.60536482  0.61362446  0.02788575    -0.60300
In922      In  0.89606121  0.90886072  0.57568558     1.36900
C923        C  0.92647157  0.95572275  0.62909491     0.77400
O924        O  0.95921793  0.86070503  0.57574933    -0.61000
O925        O  0.89368206  0.87398774  0.02287976    -0.51900
C926        C  0.80127394  0.85659578  0.08032024     0.70100
O927        O  0.85743727  0.85733328  0.60436641    -0.46800
C928        C  0.91412680  0.96266628  0.02129868     0.74800
O929        O  0.88089082  0.96026437  0.61383528    -0.58700
O930        O  0.94462314  0.94180291  0.04090885    -0.48800
O931        O  0.95200346  0.92453790  0.62037351    -0.55100
C932        C  0.94524263  0.84882681  0.54482139     0.85000
O933        O  0.79189308  0.88897820  0.06338842    -0.57000
O934        O  0.86326018  0.95810379  0.02672028    -0.60300
In935      In  0.99115627  0.54188392  0.80585465     1.36900
C936        C  0.94470990  0.58863057  0.75667274     0.77400
O937        O  0.99008615  0.59697852  0.83978254    -0.61000
O938        O  0.56448605  0.55873066  0.97254433    -0.51900
C939        C  0.93881829  0.98900468  0.99426188     0.70100
O940        O  0.91670217  0.52018620  0.83774003    -0.46800
C941        C  0.53903498  0.99422791  0.75494843     0.74800
O942        O  0.91659015  0.56839142  0.77866591    -0.58700
O943        O  0.56348742  0.50590890  0.91490683    -0.48800
O944        O  0.99551872  0.58485087  0.76010718    -0.55100
C945        C  0.53518410  0.57865266  0.99402667     0.85000
O946        O  0.98987648  0.99030101  0.99056382    -0.57000
O947        O  0.98845636  0.97994319  0.91144938    -0.60300
In948      In  0.97558762  0.53429891  0.55508433     1.36900
C949        C  0.95104257  0.98560503  0.65288650     0.77400
O950        O  0.97155866  0.57604804  0.50874380    -0.61000
O951        O  0.57000816  0.55862829  0.66100474    -0.51900
C952        C  0.93179722  0.58969293  0.59829813     0.70100
O953        O  0.90497683  0.55973757  0.58797625    -0.46800
C954        C  0.53049533  0.98382065  0.59787202     0.74800
O955        O  0.90123166  0.50936918  0.52580331    -0.58700
O956        O  0.55435667  0.01262204  0.58257146    -0.48800
O957        O  0.00048567  0.98384577  0.66154097    -0.55100
C958        C  0.54477781  0.58928782  0.65032684     0.85000
O959        O  0.97987774  0.59104987  0.58654401    -0.57000
O960        O  0.99480564  0.99361640  0.73766304    -0.60300
C961        C  0.50207309  0.75044737  0.51598553    -0.00300
C962        C  0.45148054  0.76314195  0.52942952    -0.12200
C963        C  0.01803572  0.79577055  0.53690529     0.01900
C964        C  0.96796608  0.81329685  0.52713830    -0.00400
C965        C  0.92984125  0.80242469  0.99162501    -0.12100
C966        C  0.52987294  0.76169820  0.97690092     0.01800
H967        H  0.43451134  0.74918346  0.55339593     0.14800
H968        H  0.89113637  0.81433626  0.98260748     0.14800
C969        C  0.58105035  0.74735296  0.96261749     0.36400
C970        C  0.05175582  0.81211675  0.56495347     0.36300
N971        N  0.62204391  0.73593372  0.95110762    -0.43900
N972        N  0.07885066  0.82526735  0.58735904    -0.43900
C973        C  0.69442519  0.75258708  0.07914612    -0.00300
C974        C  0.75116791  0.74781294  0.07883905    -0.12200
C975        C  0.78627999  0.78109860  0.07904367     0.01900
C976        C  0.76494204  0.82060054  0.07938272    -0.00400
C977        C  0.71932135  0.82934983  0.58240640    -0.12100
C978        C  0.68349251  0.79652179  0.58088956     0.01800
H979        H  0.76824686  0.71794964  0.07907284     0.14800
H980        H  0.70306982  0.85941888  0.58219878     0.14800
C981        C  0.62577147  0.80453626  0.57870653     0.36400
C982        C  0.84412475  0.77344141  0.07764671     0.36300
N983        N  0.57950932  0.81093796  0.57709865    -0.43900
N984        N  0.89026820  0.76649858  0.07639720    -0.43900
C985        C  0.96253312  0.76055234  0.72633226    -0.00300
C986        C  0.93609303  0.77577583  0.75690639    -0.12200
C987        C  0.52321186  0.82079500  0.77363667     0.01900
C988        C  0.53188143  0.82018843  0.73609106    -0.00400
C989        C  0.03125280  0.81184635  0.73186849    -0.12100
C990        C  0.01018223  0.77928284  0.71339242     0.01800
H991        H  0.89865317  0.76216654  0.76662215     0.14800
H992        H  0.06877357  0.82536531  0.72222913     0.14800
C993        C  0.04004421  0.76473219  0.68257569     0.36400
C994        C  0.52726157  0.85723519  0.79412271     0.36300
N995        N  0.06440882  0.75309462  0.65805967    -0.43900
N996        N  0.52996829  0.88653327  0.81038907    -0.43900
C997        C  0.77286225  0.75505275  0.67108697    -0.00300
C998        C  0.79797155  0.79280893  0.67390543    -0.12200
C999        C  0.76730687  0.82836173  0.67461211     0.01900
C1000       C  0.71026258  0.82683055  0.67055015    -0.00400
C1001       C  0.68512343  0.78892078  0.66914707    -0.12100
C1002       C  0.71562908  0.75333662  0.67020839     0.01800
H1003       H  0.84204335  0.79454656  0.67577346     0.14800
H1004       H  0.64107908  0.78700886  0.66731190     0.14800
C1005       C  0.68744277  0.71557625  0.66896826     0.36400
C1006       C  0.79556163  0.86584142  0.67855313     0.36300
N1007       N  0.66485730  0.68528157  0.66792145    -0.43900
N1008       N  0.81860670  0.89573829  0.68179794    -0.43900
loop_ 
_geom_bond_atom_site_label_1 
_geom_bond_atom_site_label_2 
_geom_bond_distance 
_geom_bond_site_symmetry_2 
_ccdc_geom_bond_type 
In1           O3   2.231       .  S
In1           O4   2.193       .  S
In1          O12   2.284       .  S
In1           O6   2.241       .  S
In1           O8   2.277       .  S
In1           O9   2.193       .  S
In1          O10   2.234       .  S
In1          O13   2.283       .  S
C2            O8   1.265       .  A
C2           O10   1.261       .  A
C2           C70   1.476       .  S
O3           C11   1.268       .  A
O4           C11   1.263       .  A
C5           O12   1.270       .  A
C5            O6   1.261       .  A
C5          C115   1.498       .  S
C7            O9   1.257       .  A
C7           O13   1.270       .  A
C7           C54   1.463       .  S
C11         C103   1.470       .  S
In14         O16   2.216       .  S
In14         O17   2.195       .  S
In14         O25   2.233       .  S
In14         O19   2.291       .  S
In14         O21   2.268       .  S
In14         O22   2.209       .  S
In14         O23   2.234       .  S
In14         O26   2.286       .  S
C15          O21   1.267       .  A
C15          O23   1.262       .  A
C15          C72   1.476       .  S
O16          C24   1.269       .  A
O17          C24   1.262       .  A
C18          O25   1.261       .  A
C18          O19   1.271       .  A
C18         C118   1.500       .  S
C20          O22   1.258       .  A
C20          O26   1.272       .  A
C20          C59   1.472       .  S
C24         C106   1.468       .  S
In27         O29   2.224       .  S
In27         O32   2.240       .  S
In27         O34   2.269       .  S
In27         O36   2.231       .  S
In27        O156   2.193       .  S
In27        O164   2.288       .  S
In27        O161   2.204       .  S
In27        O165   2.294       .  S
C28          O34   1.266       .  A
C28          O36   1.261       .  A
C28          C76   1.475       .  S
O29          C37   1.268       .  A
O30        In153   2.211       .  S
O30         C163   1.263       .  A
C31          O38   1.272       .  A
C31         O158   1.262       .  A
C31          C91   1.499       .  S
O32         C157   1.262       .  A
C33          O35   1.257       .  A
C33          O39   1.273       .  A
C33          C63   1.464       .  S
O35        In153   2.184       .  S
C37         O156   1.262       .  A
C37          C79   1.461       .  S
O38        In153   2.289       .  S
O39        In153   2.284       .  S
In40         O42   2.231       .  S
In40         O45   2.237       .  S
In40         O47   2.274       .  S
In40         O49   2.216       .  S
In40        O169   2.176       .  S
In40        O177   2.281       .  S
In40        O174   2.200       .  S
In40        O178   2.291       .  S
C41          O47   1.266       .  A
C41          O49   1.260       .  A
C41          C67   1.470       .  S
O42          C50   1.268       .  A
O43        In166   2.206       .  S
O43         C176   1.264       .  A
C44          O51   1.272       .  A
C44         O171   1.262       .  A
C44          C94   1.499       .  S
O45         C170   1.261       .  A
C46          O48   1.257       .  A
C46          O52   1.272       .  A
C46          C57   1.462       .  S
O48        In166   2.190       .  S
C50         O169   1.263       .  A
C50          C82   1.469       .  S
O51        In166   2.281       .  S
O52        In166   2.278       .  S
In53         O55   2.245       .  S
In53         O58   2.285       .  S
In53         O60   2.282       .  S
In53         O62   2.205       .  S
In53        O560   2.286       .  S
In53        O316   2.255   1_545  S
In53        O565   2.275       .  S
In53        O317   2.224   1_545  S
C54          O60   1.264       .  A
C54          O62   1.259       .  A
O55         C567   1.258       .  A
O56        In557   2.282   1_455  S
O56          C63   1.263       .  A
C57          O64   1.261       .  A
C57         O310   1.264       .  A
O58         C309   1.261   1_545  A
C59         O313   1.263       .  A
C59         O569   1.261   1_455  A
O61        In557   2.279   1_455  S
O61         C311   1.261   1_545  A
C63         O559   1.260   1_455  A
O64        In305   2.205       .  S
O65        In305   2.241       .  S
O65         C563   1.258       .  A
In66         O68   2.209       .  S
In66         O77   2.241       .  S
In66         O71   2.286       .  S
In66         O73   2.277       .  S
In66        O573   2.272       .  S
In66        O830   2.278       .  S
In66        O327   2.224   1_545  S
In66        O330   2.243   1_545  S
C67          O75   1.257       .  A
C67         O325   1.263       .  A
O68         C580   1.260       .  A
O69        In570   2.285   1_455  S
O69          C76   1.261       .  A
C70          O77   1.259       .  A
C70          O71   1.263       .  A
C72          O74   1.261       .  A
C72         O582   1.258   1_455  A
O73         C319   1.264   1_545  A
O74        In822   2.288   1_455  S
O75        In318   2.227       .  S
C76         O572   1.259   1_455  A
O78        In318   2.221       .  S
O78         C576   1.262       .  A
C79          C80   1.400   1_455  A
C79         C210   1.412   1_554  A
C80         C585   1.394   1_554  A
C80          H85   1.086       .  S
C81          C82   1.411       .  A
C81         C584   1.398       .  A
C81          C88   1.445       .  S
C82         C209   1.403   1_554  A
C83         C208   1.406       .  A
C83         C588   1.396       .  A
C83          H86   1.086       .  S
C84         C205   1.413       .  A
C84         C587   1.394       .  A
C84          C87   1.444       .  S
C87          N89   1.157       .  T
C88          N90   1.158       .  T
C91          C92   1.403       .  A
C91         C222   1.421       .  A
C92          C93   1.410       .  A
C92          H97   1.083       .  S
C93          C94   1.422       .  A
C93         C100   1.445       .  S
C94         C221   1.401       .  A
C95          C96   1.408       .  A
C95         C220   1.401       .  A
C95          H98   1.084       .  S
C96         C217   1.421       .  A
C96          C99   1.444       .  S
C99         N101   1.157       .  T
C100        N102   1.157       .  T
C103        C104   1.405       .  A
C103        C108   1.410       .  A
C104        C609   1.392       .  A
C104        H109   1.086       .  S
C105        C106   1.415       .  A
C105        C608   1.393       .  A
C105        C112   1.445       .  S
C106        C611   1.399   1_455  A
C107        C108   1.395       .  A
C107        C610   1.406       .  A
C107        H110   1.085       .  S
C108        C111   1.444       .  S
C111        N113   1.157       .  T
C112        N114   1.157       .  T
C115        C116   1.412       .  A
C115        C120   1.409       .  A
C116        C117   1.410       .  A
C116        H121   1.086       .  S
C117        C118   1.411       .  A
C117        C124   1.443       .  S
C118        C119   1.412       .  A
C119        C120   1.409       .  A
C119        H122   1.085       .  S
C120        C123   1.443       .  S
C123        N125   1.157       .  T
C124        N126   1.157       .  T
In127       O129   2.230       .  S
In127       O130   2.188       .  S
In127       O138   2.292       .  S
In127       O132   2.234       .  S
In127       O134   2.272       .  S
In127       O135   2.202       .  S
In127       O136   2.223       .  S
In127       O139   2.284       .  S
C128        O134   1.267       .  A
C128        O136   1.261       .  A
C128        C196   1.473       .  S
O129        C137   1.268       .  A
O130        C137   1.263       .  A
C131        O138   1.272       .  A
C131        O132   1.261       .  A
C131        C241   1.501       .  S
C133        O135   1.259       .  A
C133        O139   1.272       .  A
C133        C180   1.468       .  S
C137        C229   1.472       .  S
In140       O142   2.224       .  S
In140       O143   2.194       .  S
In140       O151   2.243       .  S
In140       O145   2.295       .  S
In140       O147   2.272       .  S
In140       O148   2.194       .  S
In140       O149   2.229       .  S
In140       O152   2.298       .  S
C141        O147   1.267       .  A
C141        O149   1.260       .  A
C141        C198   1.474       .  S
O142        C150   1.267       .  A
O143        C150   1.262       .  A
C144        O151   1.261       .  A
C144        O145   1.271       .  A
C144        C244   1.501       .  S
C146        O148   1.256       .  A
C146        O152   1.272       .  A
C146        C185   1.469       .  S
C150        C232   1.464       .  S
In153       O155   2.219       .  S
In153       O158   2.230       .  S
In153       O160   2.269       .  S
In153       O162   2.231       .  S
C154        O160   1.267       .  A
C154        O162   1.263       .  A
C154        C202   1.477       .  S
O155        C163   1.268       .  A
C157        O164   1.271       .  A
C157        C217   1.501       .  S
C159        O161   1.257       .  A
C159        O165   1.271       .  A
C159        C189   1.471   1_554  S
C163        C205   1.467       .  S
In166       O168   2.211       .  S
In166       O171   2.233       .  S
In166       O173   2.275       .  S
In166       O175   2.232       .  S
C167        O173   1.267       .  A
C167        O175   1.262       .  A
C167        C193   1.479       .  S
O168        C176   1.268       .  A
C170        O177   1.271       .  A
C170        C220   1.498       .  S
C172        O174   1.257       .  A
C172        O178   1.271       .  A
C172        C183   1.468   1_554  S
C176        C208   1.468       .  S
In179       O181   2.252       .  S
In179       O686   2.281       .  S
In179       O442   2.251   1_545  S
In179       O184   2.282       .  S
In179       O186   2.281       .  S
In179       O691   2.283       .  S
In179       O188   2.219       .  S
In179       O443   2.203   1_545  S
C180        O186   1.263       .  A
C180        O188   1.260       .  A
O181        C693   1.258       .  A
O182       In683   2.291   1_455  S
O182        C189   1.264       .  A
C183        O190   1.261       .  A
C183        O436   1.264       .  A
O184        C435   1.262   1_545  A
C185        O439   1.265       .  A
C185        O695   1.260   1_455  A
O187       In683   2.291   1_455  S
O187        C437   1.262   1_545  A
C189        O685   1.260   1_455  A
O190       In431   2.212       .  S
O191       In431   2.253       .  S
O191        C689   1.259       .  A
In192       O194   2.219       .  S
In192       O699   2.277       .  S
In192       O203   2.241       .  S
In192       O197   2.288       .  S
In192       O199   2.290       .  S
In192       O956   2.286       .  S
In192       O453   2.221   1_545  S
In192       O456   2.257   1_545  S
C193        O451   1.262       .  A
C193        O201   1.258       .  A
O194        C706   1.260       .  A
O195       In696   2.290   1_455  S
O195        C202   1.261       .  A
C196        O203   1.257       .  A
C196        O197   1.262       .  A
C198        O200   1.261       .  A
C198        O708   1.260   1_455  A
O199        C445   1.262   1_545  A
O200       In948   2.276   1_455  S
O201       In444   2.252       .  S
C202        O698   1.258       .  A
O204       In444   2.198       .  S
O204        C702   1.260       .  A
C205        C206   1.401   1_455  A
C206        C711   1.394       .  A
C206        H211   1.085       .  S
C207        C710   1.391       .  A
C207        C208   1.409       .  A
C207        C214   1.444       .  S
C209        C714   1.387       .  A
C209        H212   1.086       .  S
C210        C713   1.391       .  A
C210        C213   1.445       .  S
C213        N215   1.157       .  T
C214        N216   1.157       .  T
C217        C218   1.403       .  A
C218        C219   1.410       .  A
C218        H223   1.084       .  S
C219        C220   1.421       .  A
C219        C226   1.445       .  S
C221        C222   1.408       .  A
C221        H224   1.083       .  S
C222        C225   1.444       .  S
C225        N227   1.157       .  T
C226        N228   1.157       .  T
C229        C230   1.404       .  A
C229        C234   1.411       .  A
C230        C735   1.391       .  A
C230        H235   1.085       .  S
C231        C734   1.390       .  A
C231        C232   1.413       .  A
C231        C238   1.445       .  S
C232        C737   1.401   1_455  A
C233        C736   1.407       .  A
C233        C234   1.397       .  A
C233        H236   1.084       .  S
C234        C237   1.445       .  S
C237        N239   1.158       .  T
C238        N240   1.157       .  T
C241        C242   1.412       .  A
C241        C246   1.410       .  A
C242        C243   1.410       .  A
C242        H247   1.086       .  S
C243        C244   1.411       .  A
C243        C250   1.443       .  S
C244        C245   1.412       .  A
C245        C246   1.410       .  A
C245        H248   1.085       .  S
C246        C249   1.442       .  S
C249        N251   1.157       .  T
C250        N252   1.157       .  T
In253       O255   2.196       .  S
In253       O256   2.217       .  S
In253       O264   2.248       .  S
In253       O258   2.273       .  S
In253       O260   2.289       .  S
In253       O261   2.226       .  S
In253       O262   2.180       .  S
In253       O265   2.266       .  S
C254        O260   1.269       .  A
C254        O262   1.254       .  A
C254        C322   1.459       .  S
O255        C263   1.261       .  A
O256        C263   1.266       .  A
C257        O264   1.260       .  A
C257        O258   1.267       .  A
C257        C367   1.493       .  S
C259        O261   1.258       .  A
C259        O265   1.265       .  A
C259        C306   1.470       .  S
C263        C355   1.462       .  S
In266       O268   2.206       .  S
In266       O269   2.226       .  S
In266       O277   2.229       .  S
In266       O271   2.287       .  S
In266       O273   2.285       .  S
In266       O274   2.225       .  S
In266       O275   2.200       .  S
In266       O278   2.266       .  S
C267        O273   1.271       .  A
C267        O275   1.257       .  A
C267        C324   1.467       .  S
O268        C276   1.263       .  A
O269        C276   1.266       .  A
C270        O277   1.260       .  A
C270        O271   1.270       .  A
C270        C370   1.497       .  S
C272        O274   1.261       .  A
C272        O278   1.266       .  A
C272        C311   1.470       .  S
C276        C358   1.472   1_455  S
In279       O281   2.203       .  S
In279       O408   2.214       .  S
In279       O416   2.243       .  S
In279       O284   2.285       .  S
In279       O286   2.292       .  S
In279       O413   2.222       .  S
In279       O288   2.195       .  S
In279       O417   2.272       .  S
C280        O286   1.272       .  A
C280        O288   1.257       .  A
C280        C328   1.468   1_556  S
O281        C289   1.264       .  A
O282       In405   2.213       .  S
O282        C415   1.270       .  A
C283        O290   1.262       .  A
C283        O410   1.273       .  A
C283        C343   1.496       .  S
O284        C409   1.271       .  A
C285        O287   1.264       .  A
C285        O291   1.267       .  A
C285        C315   1.478       .  S
O287       In405   2.236       .  S
C289        O408   1.266       .  A
C289        C331   1.469       .  S
O290       In405   2.223       .  S
O291       In405   2.267       .  S
In292       O294   2.191       .  S
In292       O421   2.236       .  S
In292       O429   2.230       .  S
In292       O297   2.283       .  S
In292       O299   2.277       .  S
In292       O426   2.238       .  S
In292       O301   2.208       .  S
In292       O430   2.270       .  S
C293        O299   1.271       .  A
C293        O301   1.259       .  A
C293        C319   1.469   1_556  S
O294        C302   1.261       .  A
O295       In418   2.205       .  S
O295        C428   1.268       .  A
C296        O303   1.261       .  A
C296        O423   1.271       .  A
C296        C346   1.496       .  S
O297        C422   1.270       .  A
C298        O300   1.261       .  A
C298        O304   1.267       .  A
C298        C309   1.478       .  S
O300       In418   2.234       .  S
C302        O421   1.269       .  A
C302        C334   1.471       .  S
O303       In418   2.228       .  S
O304       In418   2.273       .  S
In305       O307   2.197       .  S
In305       O812   2.281       .  S
In305       O310   2.270       .  S
In305       O312   2.275       .  S
In305       O817   2.283       .  S
In305       O314   2.244       .  S
C306        O312   1.260       .  A
C306        O314   1.259       .  A
O307        C819   1.259       .  A
O308       In809   2.289   1_455  S
O308        C315   1.262       .  A
C309        O316   1.260       .  A
C311        O821   1.258   1_455  A
O313       In809   2.284   1_455  S
C315        O811   1.257   1_455  A
O317        C815   1.261       .  A
In318       O320   2.255       .  S
In318       O825   2.274       .  S
In318       O329   2.188       .  S
In318       O323   2.284       .  S
In318       O325   2.288       .  S
In318       O578   2.267       .  S
C319        O327   1.261       .  A
O320        C832   1.260       .  A
O321       In822   2.290   1_455  S
O321        C328   1.264       .  A
C322        O329   1.258       .  A
C322        O323   1.264       .  A
C324        O326   1.264   1_565  A
C324        O834   1.260   1_455  A
O326       In570   2.280   1_455  S
C328        O824   1.259   1_455  A
O330        C828   1.259       .  A
C331        C332   1.405   1_556  A
C331        C462   1.412   1_455  A
C332        C837   1.392       .  A
C332        H337   1.084       .  S
C333        C836   1.391       .  A
C333        C334   1.415   1_554  A
C333        C340   1.445       .  S
C334        C461   1.401       .  A
C335        C460   1.399       .  A
C335        C840   1.389       .  A
C335        H338   1.086       .  S
C336        C457   1.409   1_655  A
C336        C839   1.391       .  A
C336        C339   1.444       .  S
C339        N341   1.157       .  T
C340        N342   1.157       .  T
C343        C344   1.412       .  A
C343        C474   1.409       .  A
C344        C345   1.408       .  A
C344        H349   1.084       .  S
C345        C346   1.409       .  A
C345        C352   1.443       .  S
C346        C473   1.412       .  A
C347        C472   1.411       .  A
C347        C348   1.407       .  A
C347        H350   1.082       .  S
C348        C469   1.409       .  A
C348        C351   1.443       .  S
C351        N353   1.157       .  T
C352        N354   1.157       .  T
C355        C356   1.400       .  A
C355        C360   1.412       .  A
C356        C861   1.392       .  A
C356        H361   1.088       .  S
C357        C860   1.396       .  A
C357        C358   1.412       .  A
C357        C364   1.445       .  S
C358        C863   1.404   1_655  A
C359        C862   1.399       .  A
C359        C360   1.388       .  A
C359        H362   1.089       .  S
C360        C363   1.445       .  S
C363        N365   1.157       .  T
C364        N366   1.158       .  T
C367        C368   1.399       .  A
C367        C372   1.419       .  A
C368        C369   1.404       .  A
C368        H373   1.086       .  S
C369        C370   1.420       .  A
C369        C376   1.443       .  S
C370        C371   1.404       .  A
C371        C372   1.410       .  A
C371        H374   1.085       .  S
C372        C375   1.444       .  S
C375        N377   1.157       .  T
C376        N378   1.157       .  T
In379       O381   2.200       .  S
In379       O382   2.236       .  S
In379       O390   2.252       .  S
In379       O384   2.302       .  S
In379       O386   2.296       .  S
In379       O387   2.231       .  S
In379       O388   2.211       .  S
In379       O391   2.276       .  S
C380        O386   1.271       .  A
C380        O388   1.257       .  A
C380        C448   1.472       .  S
O381        C389   1.262       .  A
O382        C389   1.266       .  A
C383        O390   1.260       .  A
C383        O384   1.270       .  A
C383        C493   1.505       .  S
C385        O387   1.260       .  A
C385        O391   1.265       .  A
C385        C432   1.474       .  S
C389        C481   1.466       .  S
In392       O394   2.198       .  S
In392       O395   2.214       .  S
In392       O403   2.253       .  S
In392       O397   2.283       .  S
In392       O399   2.296       .  S
In392       O400   2.234       .  S
In392       O401   2.193       .  S
In392       O404   2.275       .  S
C393        O399   1.272       .  A
C393        O401   1.256       .  A
C393        C450   1.467       .  S
O394        C402   1.263       .  A
O395        C402   1.267       .  A
C396        O403   1.261       .  A
C396        O397   1.271       .  A
C396        C496   1.502       .  S
C398        O400   1.261       .  A
C398        O404   1.266       .  A
C398        C437   1.477       .  S
C402        C484   1.468       .  S
In405       O407   2.213       .  S
In405       O410   2.280       .  S
In405       O412   2.267       .  S
In405       O414   2.194       .  S
C406        O412   1.273       .  A
C406        O414   1.260       .  A
C406        C454   1.463       .  S
O407        C415   1.264       .  A
C409        O416   1.260       .  A
C409        C469   1.498       .  S
C411        O413   1.261       .  A
C411        O417   1.266       .  A
C411        C441   1.473       .  S
C415        C457   1.474       .  S
In418       O420   2.218       .  S
In418       O423   2.285       .  S
In418       O425   2.289       .  S
In418       O427   2.196       .  S
C419        O425   1.273       .  A
C419        O427   1.257       .  A
C419        C445   1.469       .  S
O420        C428   1.263       .  A
C422        O429   1.262       .  A
C422        C472   1.497       .  S
C424        O426   1.262       .  A
C424        O430   1.266       .  A
C424        C435   1.477       .  S
C428        C460   1.471       .  S
In431       O433   2.207       .  S
In431       O938   2.288       .  S
In431       O436   2.283       .  S
In431       O438   2.286       .  S
In431       O943   2.289       .  S
In431       O440   2.244       .  S
C432        O438   1.262       .  A
C432        O440   1.258       .  A
O433        C945   1.260       .  A
O434       In935   2.294   1_455  S
O434        C441   1.262       .  A
C435        O442   1.259       .  A
C437        O947   1.258   1_455  A
O439       In935   2.291   1_455  S
C441        O937   1.257   1_455  A
O443        C941   1.260       .  A
In444       O446   2.234       .  S
In444       O951   2.290       .  S
In444       O455   2.221       .  S
In444       O449   2.286       .  S
In444       O451   2.293       .  S
In444       O704   2.284       .  S
C445        O453   1.259       .  A
O446        C958   1.257       .  A
O447       In948   2.268   1_455  S
O447        C454   1.263       .  A
C448        O455   1.261       .  A
C448        O449   1.265       .  A
C450        O452   1.265   1_565  A
C450        O960   1.259   1_455  A
O452       In696   2.293   1_455  S
C454        O950   1.261   1_455  A
O456        C954   1.259       .  A
C457        C458   1.408       .  A
C458        C963   1.399       .  A
C458        H463   1.086       .  S
C459        C962   1.399       .  A
C459        C460   1.415       .  A
C459        C466   1.445       .  S
C461        C966   1.396       .  A
C461        H464   1.085       .  S
C462        C965   1.393       .  A
C462        C465   1.445       .  S
C465        N467   1.157       .  T
C466        N468   1.158       .  T
C469        C470   1.414       .  A
C470        C471   1.412       .  A
C470        H475   1.082       .  S
C471        C472   1.411       .  A
C471        C478   1.443       .  S
C473        C474   1.408       .  A
C473        H476   1.084       .  S
C474        C477   1.443       .  S
C477        N479   1.157       .  T
C478        N480   1.157       .  T
C481        C482   1.400       .  A
C481        C486   1.410       .  A
C482        C987   1.396       .  A
C482        H487   1.086       .  S
C483        C986   1.391       .  A
C483        C484   1.410   1_655  A
C483        C490   1.445       .  S
C484        C989   1.406       .  A
C485        C988   1.400       .  A
C485        C486   1.393       .  A
C485        H488   1.087       .  S
C486        C489   1.445       .  S
C489        N491   1.157       .  T
C490        N492   1.157       .  T
C493        C494   1.405       .  A
C493        C498   1.421       .  A
C494        C495   1.414       .  A
C494        H499   1.084       .  S
C495        C496   1.423       .  A
C495        C502   1.444       .  S
C496        C497   1.399       .  A
C497        C498   1.406       .  A
C497        H500   1.085       .  S
C498        C501   1.439       .  S
C501        N503   1.155       .  T
C502        N504   1.157       .  T
In505       O507   2.183       .  S
In505       O508   2.224       .  S
In505       O516   2.242       .  S
In505       O510   2.286       .  S
In505       O512   2.289       .  S
In505       O513   2.227       .  S
In505       O514   2.193       .  S
In505       O517   2.278       .  S
C506        O512   1.272       .  A
C506        O514   1.257       .  A
C506        C574   1.465       .  S
O507        C515   1.261       .  A
O508        C515   1.269       .  A
C509        O516   1.261       .  A
C509        O510   1.271       .  A
C509        C619   1.500       .  S
C511        O513   1.260       .  A
C511        O517   1.267       .  A
C511        C558   1.476       .  S
C515        C607   1.467       .  S
In518       O520   2.196       .  S
In518       O521   2.213       .  S
In518       O529   2.225       .  S
In518       O523   2.286       .  S
In518       O525   2.273       .  S
In518       O526   2.224       .  S
In518       O527   2.199       .  S
In518       O530   2.264       .  S
C519        O525   1.273       .  A
C519        O527   1.259       .  A
C519        C576   1.466       .  S
O520        C528   1.264       .  A
O521        C528   1.269       .  A
C522        O529   1.262       .  A
C522        O523   1.273       .  A
C522        C622   1.500       .  S
C524        O526   1.263       .  A
C524        O530   1.267       .  A
C524        C563   1.473       .  S
C528        C610   1.469       .  S
In531       O533   2.208       .  S
In531       O660   2.207       .  S
In531       O668   2.230       .  S
In531       O536   2.273       .  S
In531       O538   2.273       .  S
In531       O665   2.235       .  S
In531       O540   2.196       .  S
In531       O669   2.263       .  S
C532        O538   1.271       .  A
C532        O540   1.258       .  A
C532        C580   1.463   1_556  S
O533        C541   1.264       .  A
O534       In657   2.229       .  S
O534        C667   1.268       .  A
C535        O542   1.261       .  A
C535        O662   1.270       .  A
C535        C595   1.494       .  S
O536        C661   1.271       .  A
C537        O539   1.262       .  A
C537        O543   1.267       .  A
C537        C567   1.474       .  S
O539       In657   2.224       .  S
C541        O660   1.268       .  A
C541        C583   1.471       .  S
O542       In657   2.227       .  S
O543       In657   2.268       .  S
In544       O546   2.190       .  S
In544       O673   2.220       .  S
In544       O681   2.228       .  S
In544       O549   2.291       .  S
In544       O551   2.274       .  S
In544       O678   2.231       .  S
In544       O553   2.208       .  S
In544       O682   2.276       .  S
C545        O551   1.272       .  A
C545        O553   1.258       .  A
C545        C571   1.468   1_556  S
O546        C554   1.262       .  A
O547       In670   2.222       .  S
O547        C680   1.267       .  A
C548        O555   1.260       .  A
C548        O675   1.269       .  A
C548        C598   1.491       .  S
O549        C674   1.272       .  A
C550        O552   1.259       .  A
C550        O556   1.266       .  A
C550        C561   1.474       .  S
O552       In670   2.228       .  S
C554        O673   1.269       .  A
C554        C586   1.458       .  S
O555       In670   2.232       .  S
O556       In670   2.280       .  S
In557       O559   2.203       .  S
In557       O820   2.217   1_545  S
In557       O562   2.273       .  S
In557       O564   2.289       .  S
In557       O566   2.244       .  S
In557       O821   2.243   1_545  S
C558        O564   1.261       .  A
C558        O566   1.258       .  A
O560        C567   1.261       .  A
C561        O568   1.258       .  A
C561        O814   1.262       .  A
O562        C813   1.263   1_545  A
C563        O817   1.262       .  A
O565        C815   1.263   1_545  A
O568       In809   2.242       .  S
O569       In809   2.227       .  S
In570       O572   2.251       .  S
In570       O581   2.208       .  S
In570       O575   2.284       .  S
In570       O577   2.293       .  S
In570       O831   2.245   1_545  S
In570       O834   2.214   1_545  S
C571        O829   1.263       .  A
C571        O579   1.262       .  A
O573        C580   1.264       .  A
C574        O581   1.260       .  A
C574        O575   1.264       .  A
C576        O578   1.263       .  A
O577        C823   1.261   1_545  A
O579       In822   2.229       .  S
O582       In822   2.256       .  S
C583        C584   1.408   1_556  A
C583        C714   1.409       .  A
C584        H589   1.085       .  S
C585        C586   1.412       .  A
C585        C592   1.446   1_556  S
C586        C713   1.397   1_655  A
C587        C712   1.399   1_455  A
C587        H590   1.086       .  S
C588        C709   1.409       .  A
C588        C591   1.444       .  S
C591        N593   1.157       .  T
C592        N594   1.158       .  T
C595        C596   1.412       .  A
C595        C726   1.409       .  A
C596        C597   1.407       .  A
C596        H601   1.084       .  S
C597        C598   1.406       .  A
C597        C604   1.443       .  S
C598        C725   1.411       .  A
C599        C724   1.413       .  A
C599        C600   1.408       .  A
C599        H602   1.083       .  S
C600        C721   1.408       .  A
C600        C603   1.444       .  S
C603        N605   1.157       .  T
C604        N606   1.157       .  T
C607        C608   1.400   1_655  A
C607        C612   1.415       .  A
C608        H613   1.086       .  S
C609        C610   1.408       .  A
C609        C616   1.445       .  S
C611        C612   1.391       .  A
C611        H614   1.086       .  S
C612        C615   1.445       .  S
C615        N617   1.157       .  T
C616        N618   1.157       .  T
C619        C620   1.401       .  A
C619        C624   1.422       .  A
C620        C621   1.408       .  A
C620        H625   1.085       .  S
C621        C622   1.422       .  A
C621        C628   1.444       .  S
C622        C623   1.402       .  A
C623        C624   1.410       .  A
C623        H626   1.085       .  S
C624        C627   1.444       .  S
C627        N629   1.157       .  T
C628        N630   1.157       .  T
In631       O633   2.192       .  S
In631       O634   2.206       .  S
In631       O642   2.227       .  S
In631       O636   2.272       .  S
In631       O638   2.280       .  S
In631       O639   2.213       .  S
In631       O640   2.189       .  S
In631       O643   2.263       .  S
C632        O638   1.273       .  A
C632        O640   1.257       .  A
C632        C700   1.464       .  S
O633        C641   1.263       .  A
O634        C641   1.269       .  A
C635        O642   1.262       .  A
C635        O636   1.273       .  A
C635        C745   1.495       .  S
C637        O639   1.261       .  A
C637        O643   1.268       .  A
C637        C684   1.468       .  S
C641        C733   1.460       .  S
In644       O646   2.213       .  S
In644       O647   2.221       .  S
In644       O655   2.233       .  S
In644       O649   2.286       .  S
In644       O651   2.290       .  S
In644       O652   2.238       .  S
In644       O653   2.183       .  S
In644       O656   2.278       .  S
C645        O651   1.272       .  A
C645        O653   1.256       .  A
C645        C702   1.464       .  S
O646        C654   1.263       .  A
O647        C654   1.267       .  A
C648        O655   1.261       .  A
C648        O649   1.270       .  A
C648        C748   1.497       .  S
C650        O652   1.261       .  A
C650        O656   1.266       .  A
C650        C689   1.479       .  S
C654        C736   1.474       .  S
In657       O659   2.192       .  S
In657       O662   2.288       .  S
In657       O664   2.277       .  S
In657       O666   2.198       .  S
C658        O664   1.271       .  A
C658        O666   1.258       .  A
C658        C706   1.466       .  S
O659        C667   1.263       .  A
C661        O668   1.262       .  A
C661        C721   1.495       .  S
C663        O665   1.263       .  A
C663        O669   1.266       .  A
C663        C693   1.474       .  S
C667        C709   1.467       .  S
In670       O672   2.205       .  S
In670       O675   2.276       .  S
In670       O677   2.296       .  S
In670       O679   2.198       .  S
C671        O677   1.269       .  A
C671        O679   1.256       .  A
C671        C697   1.468       .  S
O672        C680   1.263       .  A
C674        O681   1.262       .  A
C674        C724   1.498       .  S
C676        O678   1.262       .  A
C676        O682   1.268       .  A
C676        C687   1.478       .  S
C680        C712   1.464       .  S
In683       O685   2.219       .  S
In683       O946   2.209   1_545  S
In683       O688   2.275       .  S
In683       O690   2.275       .  S
In683       O692   2.237       .  S
In683       O947   2.249   1_545  S
C684        O690   1.260       .  A
C684        O692   1.259       .  A
O686        C693   1.261       .  A
C687        O694   1.259       .  A
C687        O940   1.261       .  A
O688        C939   1.262   1_545  A
C689        O943   1.262       .  A
O691        C941   1.264   1_545  A
O694       In935   2.252       .  S
O695       In935   2.204       .  S
In696       O698   2.252   1_655  S
In696       O707   2.211   1_655  S
In696       O701   2.274       .  S
In696       O703   2.278       .  S
In696       O957   2.241   1_645  S
In696       O960   2.203   1_545  S
C697        O955   1.265       .  A
C697        O705   1.259       .  A
O699        C706   1.262       .  A
C700        O707   1.261   1_655  A
C700        O701   1.263       .  A
C702        O704   1.265       .  A
O703        C949   1.261   1_545  A
O705       In948   2.206       .  S
O708       In948   2.245       .  S
C709        C710   1.403       .  A
C710        H715   1.086       .  S
C711        C712   1.412       .  A
C711        C718   1.445       .  S
C713        H716   1.086       .  S
C714        C717   1.444       .  S
C717        N719   1.157       .  T
C718        N720   1.157       .  T
C721        C722   1.412       .  A
C722        C723   1.410       .  A
C722        H727   1.083       .  S
C723        C724   1.409       .  A
C723        C730   1.442       .  S
C725        C726   1.409       .  A
C725        H728   1.085       .  S
C726        C729   1.443       .  S
C729        N731   1.157       .  T
C730        N732   1.157       .  T
C733        C734   1.397   1_655  A
C733        C738   1.412       .  A
C734        H739   1.087       .  S
C735        C736   1.411       .  A
C735        C742   1.444       .  S
C737        C738   1.394       .  A
C737        H740   1.087       .  S
C738        C741   1.446       .  S
C741        N743   1.158       .  T
C742        N744   1.157       .  T
C745        C746   1.399       .  A
C745        C750   1.422       .  A
C746        C747   1.405       .  A
C746        H751   1.085       .  S
C747        C748   1.420       .  A
C747        C754   1.441       .  S
C748        C749   1.402       .  A
C749        C750   1.409       .  A
C749        H752   1.085       .  S
C750        C753   1.445       .  S
C753        N755   1.157       .  T
C754        N756   1.156       .  T
In757       O759   2.219       .  S
In757       O760   2.209       .  S
In757       O768   2.287       .  S
In757       O762   2.232       .  S
In757       O764   2.280       .  S
In757       O765   2.184       .  S
In757       O766   2.236       .  S
In757       O769   2.287       .  S
C758        O764   1.268       .  A
C758        O766   1.262       .  A
C758        C826   1.480       .  S
O759        C767   1.268       .  A
O760        C767   1.263       .  A
C761        O768   1.272       .  A
C761        O762   1.262       .  A
C761        C871   1.497       .  S
C763        O765   1.257       .  A
C763        O769   1.273       .  A
C763        C810   1.465       .  S
C767        C859   1.472       .  S
In770       O772   2.192       .  S
In770       O773   2.190       .  S
In770       O781   2.223       .  S
In770       O775   2.271       .  S
In770       O777   2.262       .  S
In770       O778   2.204       .  S
In770       O779   2.220       .  S
In770       O782   2.275       .  S
C771        O777   1.269       .  A
C771        O779   1.263       .  A
C771        C828   1.472       .  S
O772        C780   1.271       .  A
O773        C780   1.264       .  A
C774        O781   1.263       .  A
C774        O775   1.275       .  A
C774        C874   1.498       .  S
C776        O778   1.260       .  A
C776        O782   1.274       .  A
C776        C815   1.468       .  S
C780        C862   1.459       .  S
In783       O785   2.214       .  S
In783       O912   2.201       .  S
In783       O920   2.288       .  S
In783       O788   2.232       .  S
In783       O790   2.267       .  S
In783       O917   2.193       .  S
In783       O792   2.236       .  S
In783       O921   2.290       .  S
C784        O790   1.267       .  A
C784        O792   1.262       .  A
C784        C832   1.475       .  S
O785        C793   1.269       .  A
O786       In909   2.191       .  S
O786        C919   1.261       .  A
C787        O794   1.270       .  A
C787        O914   1.260       .  A
C787        C847   1.495       .  S
O788        C913   1.261       .  A
C789        O791   1.257       .  A
C789        O795   1.272       .  A
C789        C819   1.462       .  S
O791       In909   2.185       .  S
C793        O912   1.262       .  A
C793        C835   1.471       .  S
O794       In909   2.282       .  S
O795       In909   2.282       .  S
In796       O798   2.205       .  S
In796       O925   2.197       .  S
In796       O933   2.287       .  S
In796       O801   2.237       .  S
In796       O803   2.277       .  S
In796       O930   2.189       .  S
In796       O805   2.224       .  S
In796       O934   2.283       .  S
C797        O803   1.268       .  A
C797        O805   1.261       .  A
C797        C823   1.476       .  S
O798        C806   1.268       .  A
O799       In922   2.188       .  S
O799        C932   1.262       .  A
C800        O807   1.269       .  A
C800        O927   1.262       .  A
C800        C850   1.497       .  S
O801        C926   1.261       .  A
C802        O804   1.257       .  A
C802        O808   1.270       .  A
C802        C813   1.465       .  S
O804       In922   2.201       .  S
C806        O925   1.264       .  A
C806        C838   1.465       .  S
O807       In922   2.282       .  S
O808       In922   2.277       .  S
In809       O811   2.255       .  S
In809       O814   2.287       .  S
In809       O816   2.284       .  S
In809       O818   2.202       .  S
C810        O816   1.264       .  A
C810        O818   1.260       .  A
O812        C819   1.264       .  A
C813        O820   1.261       .  A
In822       O824   2.209       .  S
In822       O833   2.256       .  S
In822       O827   2.293       .  S
In822       O829   2.270       .  S
C823        O831   1.257       .  A
O825        C832   1.260       .  A
C826        O833   1.258       .  A
C826        O827   1.261       .  A
C828        O830   1.261   1_565  A
C835        C836   1.400       .  A
C835        C966   1.416   1_554  A
C836        H841   1.086       .  S
C837        C838   1.408   1_455  A
C837        C844   1.445       .  S
C838        C965   1.404   1_554  A
C839        C964   1.403       .  A
C839        H842   1.086       .  S
C840        C961   1.414       .  A
C840        C843   1.445       .  S
C843        N845   1.157       .  T
C844        N846   1.157       .  T
C847        C848   1.400       .  A
C847        C978   1.421       .  A
C848        C849   1.406       .  A
C848        H853   1.083       .  S
C849        C850   1.421       .  A
C849        C856   1.444       .  S
C850        C977   1.403       .  A
C851        C976   1.401       .  A
C851        C852   1.409       .  A
C851        H854   1.084       .  S
C852        C973   1.422       .  A
C852        C855   1.444       .  S
C855        N857   1.157       .  T
C856        N858   1.157       .  T
C859        C860   1.405       .  A
C859        C864   1.411       .  A
C860        H865   1.085       .  S
C861        C862   1.412       .  A
C861        C868   1.445       .  S
C863        C864   1.394   1_455  A
C863        H866   1.085       .  S
C864        C867   1.445       .  S
C867        N869   1.157       .  T
C868        N870   1.157       .  T
C871        C872   1.413       .  A
C871        C876   1.409       .  A
C872        C873   1.409       .  A
C872        H877   1.085       .  S
C873        C874   1.408       .  A
C873        C880   1.443       .  S
C874        C875   1.414       .  A
C875        C876   1.410       .  A
C875        H878   1.084       .  S
C876        C879   1.443       .  S
C879        N881   1.157       .  T
C880        N882   1.157       .  T
In883       O885   2.222       .  S
In883       O886   2.187       .  S
In883       O894   2.283       .  S
In883       O888   2.223       .  S
In883       O890   2.266       .  S
In883       O891   2.205       .  S
In883       O892   2.225       .  S
In883       O895   2.275       .  S
C884        O890   1.266       .  A
C884        O892   1.262       .  A
C884        C952   1.472       .  S
O885        C893   1.268       .  A
O886        C893   1.263       .  A
C887        O894   1.271       .  A
C887        O888   1.260       .  A
C887        C997   1.493       .  S
C889        O891   1.259       .  A
C889        O895   1.271       .  A
C889        C936   1.467       .  S
C893        C985   1.467       .  S
In896       O898   2.219       .  S
In896       O899   2.203       .  S
In896       O907   2.225       .  S
In896       O901   2.286       .  S
In896       O903   2.275       .  S
In896       O904   2.184       .  S
In896       O905   2.236       .  S
In896       O908   2.282       .  S
C897        O903   1.268       .  A
C897        O905   1.262       .  A
C897        C954   1.479       .  S
O898        C906   1.269       .  A
O899        C906   1.262       .  A
C900        O907   1.262       .  A
C900        O901   1.272       .  A
C900       C1000   1.498       .  S
C902        O904   1.258       .  A
C902        O908   1.273       .  A
C902        C941   1.464       .  S
C906        C988   1.462       .  S
In909       O911   2.234       .  S
In909       O914   2.231       .  S
In909       O916   2.272       .  S
In909       O918   2.219       .  S
C910        O916   1.266       .  A
C910        O918   1.261       .  A
C910        C958   1.472       .  S
O911        C919   1.268       .  A
C913        O920   1.272       .  A
C913        C973   1.501       .  S
C915        O917   1.257       .  A
C915        O921   1.272       .  A
C915        C945   1.468   1_554  S
C919        C961   1.472       .  S
In922       O924   2.237       .  S
In922       O927   2.233       .  S
In922       O929   2.266       .  S
In922       O931   2.226       .  S
C923        O929   1.266       .  A
C923        O931   1.261       .  A
C923        C949   1.471       .  S
O924        C932   1.268       .  A
C926        O933   1.272       .  A
C926        C976   1.501       .  S
C928        O930   1.257       .  A
C928        O934   1.273       .  A
C928        C939   1.463   1_554  S
C932        C964   1.471       .  S
In935       O937   2.241       .  S
In935       O940   2.290       .  S
In935       O942   2.273       .  S
In935       O944   2.224       .  S
C936        O942   1.262       .  A
C936        O944   1.261       .  A
O938        C945   1.265       .  A
C939        O946   1.261       .  A
In948       O950   2.215       .  S
In948       O959   2.240       .  S
In948       O953   2.284       .  S
In948       O955   2.290       .  S
C949        O957   1.258   1_655  A
O951        C958   1.262       .  A
C952        O959   1.258       .  A
C952        O953   1.263       .  A
C954        O956   1.260   1_565  A
C961        C962   1.403       .  A
C962        H967   1.085       .  S
C963        C964   1.410   1_455  A
C963        C970   1.445       .  S
C965        H968   1.084       .  S
C966        C969   1.445       .  S
C969        N971   1.157       .  T
C970        N972   1.158       .  T
C973        C974   1.402       .  A
C974        C975   1.409       .  A
C974        H979   1.084       .  S
C975        C976   1.423       .  A
C975        C982   1.444       .  S
C977        C978   1.410       .  A
C977        H980   1.083       .  S
C978        C981   1.445       .  S
C981        N983   1.157       .  T
C982        N984   1.157       .  T
C985        C986   1.405       .  A
C985        C990   1.409   1_655  A
C986        H991   1.086       .  S
C987        C988   1.412       .  A
C987        C994   1.446       .  S
C989        C990   1.393       .  A
C989        H992   1.085       .  S
C990        C993   1.444       .  S
C993        N995   1.157       .  T
C994        N996   1.158       .  T
C997        C998   1.412       .  A
C997       C1002   1.407       .  A
C998        C999   1.409       .  A
C998       H1003   1.086       .  S
C999       C1000   1.410       .  A
C999       C1006   1.443       .  S
C1000      C1001   1.413       .  A
C1001      C1002   1.408       .  A
C1001      H1004   1.086       .  S
C1002      C1005   1.443       .  S
C1005      N1007   1.157       .  T
C1006      N1008   1.157       .  T
