geometry optimzed in LAMMPS
_audit_creation_date              2020-11-30 
_audit_creation_method            'lammps2cif' 
_symmetry_space_group_name_H-M    'P1' 
_symmetry_Int_Tables_number       1 
_symmetry_cell_setting            triclinic 
loop_ 
_symmetry_equiv_pos_as_xyz 
  x,y,z 
_cell_length_a                    41.12390879293771 
_cell_length_b                    39.77410112798832 
_cell_length_c                    36.93640480788618 
_cell_angle_alpha                 88.24032846576661 
_cell_angle_beta                  90.7806335072354 
_cell_angle_gamma                 88.41289178493516 
loop_ 
_atom_site_label 
_atom_site_type_symbol 
_atom_site_fract_x 
_atom_site_fract_y 
_atom_site_fract_z 
_atom_site_charge 
O1          O  0.09543174  0.18948605  0.03441650    -0.78480
O2          O  0.49600314  0.11144658  0.47017134    -0.78500
O3          O  0.03809032  0.17238617  0.42783590    -0.78510
O4          O  0.01523422  0.11617201  0.08216415    -0.78450
O5          O  0.03463909  0.11729660  0.41763520    -0.78580
O6          O  0.03645252  0.16474762  0.06561464    -0.78500
O7          O  0.49583494  0.14164668  0.01785209    -0.78480
O8          O  0.06972934  0.20791686  0.48459066    -0.78520
C9          C  0.08892349  0.21274140  0.51102398     1.11210
C10         C  0.48119015  0.12969095  0.49176630     1.11090
C11         C  0.02844053  0.14831629  0.40857514     1.11230
C12         C  0.01663577  0.14783505  0.08588694     1.11110
O13         O  0.09570113  0.13833463  0.08617138    -0.78480
O14         O  0.08862966  0.08475623  0.45806798    -0.78560
O15         O  0.12477919  0.16358743  0.47773537    -0.78490
O16         O  0.01847155  0.07115194  0.02131414    -0.78470
O17         O  0.02755418  0.05471341  0.46394222    -0.78530
O18         O  0.11746304  0.12375316  0.01937036    -0.78490
O19         O  0.07548033  0.09321959  0.06192756    -0.78450
O20         O  0.09425484  0.13133961  0.42436454    -0.78520
Co21       Co  0.07692214  0.14380658  0.03943443     1.51530
Co22       Co  0.04314620  0.09869608  0.46861145     1.51690
Co23       Co  0.07988762  0.16806235  0.45560576     1.51570
Co24       Co  0.03589599  0.11855846  0.03612750     1.51470
O25         O  0.05693912  0.13826899  0.99137595    -1.40410
C26         C  0.09327087  0.10670579  0.08652460     1.11140
C27         C  0.10216196  0.10107060  0.43255535     1.11230
C28         C  0.13586555  0.13999731  0.99863915     1.11160
C29         C  0.01578523  0.04942905  0.99559686     1.11140
O30         O  0.28419523  0.05550765  0.02478981    -0.78480
O31         O  0.36556713  0.11429770  0.48675977    -0.78500
O32         O  0.33683210  0.08749009  0.43975042    -0.78510
O33         O  0.35067571  0.14195789  0.08797500    -0.78450
O34         O  0.35801017  0.13562950  0.41861400    -0.78580
O35         O  0.34280499  0.09416557  0.05804713    -0.78500
O36         O  0.37467642  0.14913670  0.02663564    -0.78480
O37         O  0.27953640  0.05580583  0.46339548    -0.78520
C38         C  0.27642426  0.04123935  0.99462213     1.11210
C39         C  0.38542147  0.12956185  0.00439732     1.11090
C40         C  0.35587105  0.10376299  0.41756057     1.11230
C41         C  0.35768839  0.11058660  0.08343530     1.11110
O42         O  0.28176220  0.11247187  0.08753714    -0.78480
O43         O  0.30061312  0.16952458  0.42878666    -0.78560
O44         O  0.24730485  0.11286379  0.47308783    -0.78490
O45         O  0.33616599  0.19921945  0.02981111    -0.78470
O46         O  0.35295827  0.18828146  0.47306098    -0.78530
O47         O  0.24841328  0.11464073  0.03115094    -0.78490
O48         O  0.28741762  0.16417509  0.06826681    -0.78450
O49         O  0.27940128  0.12064198  0.41913541    -0.78520
Co50       Co  0.29572500  0.10429956  0.03765805     1.51530
Co51       Co  0.33289069  0.14350056  0.45986802     1.51690
Co52       Co  0.29366492  0.10124012  0.46695963     1.51570
Co53       Co  0.32870693  0.15154739  0.04278574     1.51470
O54         O  0.30403802  0.14156253  0.99809888    -1.40410
C55         C  0.27588243  0.14360313  0.09133097     1.11140
C56         C  0.28227583  0.15139319  0.41013522     1.11230
C57         C  0.23287636  0.11727758  0.00195367     1.11160
C58         C  0.35034862  0.20780919  0.50033808     1.11140
O59         O  0.14461918  0.31478697  0.02992123    -0.78480
O60         O  0.24902481  0.39163238  0.46833151    -0.78500
O61         O  0.20922009  0.32757861  0.42942779    -0.78510
O62         O  0.22759053  0.38445769  0.07800206    -0.78450
O63         O  0.21668077  0.38179987  0.41414963    -0.78580
O64         O  0.20544795  0.33658458  0.06235114    -0.78500
O65         O  0.24693828  0.35952754  0.01591288    -0.78480
O66         O  0.17087589  0.29522554  0.48329102    -0.78520
C67         C  0.15059240  0.29139328  0.50851896     1.11210
C68         C  0.26274146  0.37222762  0.49093505     1.11090
C69         C  0.22380587  0.35019238  0.41103896     1.11230
C70         C  0.22621591  0.35258898  0.08198572     1.11110
O71         O  0.14572707  0.36273619  0.07972210    -0.78480
O72         O  0.15869904  0.41844011  0.44239760    -0.78560
O73         O  0.11953753  0.34373471  0.46691090    -0.78490
O74         O  0.22435258  0.43142575  0.01470779    -0.78470
O75         O  0.21912411  0.44719958  0.45502173    -0.78530
O76         O  0.12598183  0.38041045  0.01056148    -0.78490
O77         O  0.16751038  0.40850107  0.05733229    -0.78450
O78         O  0.15537677  0.37145115  0.41249258    -0.78520
Co79       Co  0.16532585  0.35901551  0.03378493     1.51530
Co80       Co  0.20246808  0.40382798  0.46087639     1.51690
Co81       Co  0.16526976  0.33534161  0.45023047     1.51570
Co82       Co  0.20687744  0.38345558  0.03168380     1.51470
O83         O  0.18618293  0.36526536  0.48630089    -1.40410
C84         C  0.14959562  0.39391932  0.08175998     1.11140
C85         C  0.14850786  0.40253544  0.41548146     1.11230
C86         C  0.10857341  0.36681953  0.48691023     1.11160
C87         C  0.22843746  0.45302067  0.48756098     1.11140
O88         O  0.47295851  0.44145420  0.03006787    -0.78480
O89         O  0.37550751  0.35508736  0.47184438    -0.78500
O90         O  0.40954556  0.42105352  0.43074936    -0.78510
O91         O  0.39898150  0.36257744  0.08248342    -0.78450
O92         O  0.40972284  0.36614625  0.41879492    -0.78580
O93         O  0.41736432  0.41222474  0.06363482    -0.78500
O94         O  0.37399188  0.38473051  0.01964867    -0.78480
O95         O  0.44239602  0.45817754  0.48326953    -0.78520
C96         C  0.46270017  0.46457065  0.00801130     1.11210
C97         C  0.35976644  0.37174097  0.99388274     1.11090
C98         C  0.39933778  0.39660697  0.41274957     1.11230
C99         C  0.39893850  0.39458470  0.08465292     1.11110
O100        O  0.47879614  0.38973300  0.08137080    -0.78480
O101        O  0.46856961  0.33728894  0.45524096    -0.78560
O102        O  0.49959246  0.41737275  0.47118463    -0.78490
O103        O  0.40244798  0.31602970  0.02060598    -0.78470
O104        O  0.41125877  0.30230492  0.46215359    -0.78530
O105        O  0.49750191  0.37673189  0.01297552    -0.78490
O106        O  0.45932477  0.34331284  0.05898003    -0.78450
O107        O  0.46755513  0.38365272  0.42036768    -0.78520
Co108      Co  0.45745155  0.39419679  0.03595252     1.51530
Co109      Co  0.42312618  0.34695374  0.46817743     1.51690
Co110      Co  0.45323599  0.41924061  0.45329107     1.51570
Co111      Co  0.41682755  0.36522879  0.03530847     1.51470
O112        O  0.43470915  0.38746273  0.99016137    -1.40410
C113        C  0.47772307  0.35796633  0.08224485     1.11140
C114        C  0.47871852  0.35434506  0.42841279     1.11230
C115        C  0.51311509  0.39352308  0.98989412     1.11160
C116        C  0.40077186  0.29497941  0.99385815     1.11140
O117        O  0.22486641  0.10600815  0.17533186    -0.78480
O118        O  0.21154997  0.16072655  0.30139639    -0.78500
O119        O  0.14314295  0.17381601  0.23691595    -0.78510
O120        O  0.25114077  0.07801211  0.28228218    -0.78450
O121        O  0.14884956  0.18915208  0.29523376    -0.78580
O122        O  0.24386555  0.12060756  0.24350912    -0.78500
O123        O  0.22189974  0.11373862  0.33438551    -0.78480
O124        O  0.20080794  0.15152147  0.19661564    -0.78520
C125        C  0.22004129  0.13741424  0.17340534     1.11210
C126        C  0.22673996  0.14477353  0.32711342     1.11090
C127        C  0.13903804  0.19533189  0.26254017     1.11230
C128        C  0.26190033  0.10283699  0.26470686     1.11110
O129        O  0.22244148  0.05559824  0.22548025    -0.78480
O130        O  0.12128675  0.13078579  0.28805014    -0.78560
O131        O  0.14171529  0.13144772  0.17549636    -0.78490
O132        O  0.16600571  0.07277154  0.32905204    -0.78470
O133        O  0.16125612  0.12721724  0.34103178    -0.78530
O134        O  0.16630541  0.08264157  0.19065199    -0.78490
O135        O  0.19607679  0.03749682  0.27377374    -0.78450
O136        O  0.12255317  0.10299629  0.23846820    -0.78520
Co137      Co  0.20479554  0.10208305  0.22036339     1.51530
Co138      Co  0.16710762  0.14572934  0.29006291     1.51690
Co139      Co  0.16184486  0.12662028  0.22175276     1.51570
Co140      Co  0.20705327  0.07639195  0.30308278     1.51470
O141        O  0.18357908  0.10698629  0.26701736    -1.40410
C142        C  0.21297985  0.03198915  0.24604822     1.11140
C143        C  0.10837991  0.11091323  0.26688240     1.11230
C144        C  0.14674813  0.10048267  0.16942892     1.11160
C145        C  0.15671056  0.09615123  0.34927778     1.11140
O146        O  0.41210793  0.08288140  0.18766019    -0.78480
O147        O  0.43248367  0.06437587  0.32325781    -0.78500
O148        O  0.48128735  0.06154430  0.21842849    -0.78510
O149        O  0.36942475  0.14684784  0.27228545    -0.78450
O150        O  0.43701236  0.04963214  0.24898986    -0.78580
O151        O  0.37052493  0.10475166  0.23546446    -0.78500
O152        O  0.40950430  0.11660198  0.31998361    -0.78480
O153        O  0.45420226  0.09814471  0.15986615    -0.78520
C154        C  0.42648620  0.08527866  0.15852054     1.11210
C155        C  0.41308448  0.08690197  0.33567304     1.11090
C156        C  0.46274872  0.03989745  0.23296987     1.11230
C157        C  0.35639765  0.12167649  0.25889952     1.11110
O158        O  0.37894431  0.17350305  0.21140357    -0.78480
O159        O  0.99345116  0.07761604  0.28187949    -0.78560
O160        O  0.47262411  0.15957362  0.19385003    -0.78490
O161        O  0.46021923  0.16859341  0.29635714    -0.78470
O162        O  0.46692279  0.11767508  0.31675858    -0.78530
O163        O  0.42677279  0.15333320  0.16379370    -0.78490
O164        O  0.41524959  0.19503024  0.24694047    -0.78450
O165        O  0.00406175  0.12268147  0.24860858    -0.78520
Co166      Co  0.39931501  0.12782822  0.20203551     1.51530
Co167      Co  0.44482061  0.08825925  0.28035734     1.51690
Co168      Co  0.47606995  0.11190240  0.20762848     1.51570
Co169      Co  0.41663432  0.15481909  0.28022900     1.51470
O170        O  0.43639146  0.12312791  0.24030562    -1.40410
C171        C  0.38964937  0.19855553  0.22762303     1.11140
C172        C  0.01368474  0.09864190  0.26947317     1.11230
C173        C  0.45570790  0.16464470  0.16554713     1.11160
C174        C  0.47388347  0.14797258  0.31813385     1.11140
O175        O  0.02551802  0.38529076  0.16961664    -0.78480
O176        O  0.04086862  0.32964783  0.32314902    -0.78500
O177        O  0.10623756  0.30995707  0.22707659    -0.78510
O178        O  0.49821374  0.38441365  0.27972812    -0.78450
O179        O  0.07506791  0.29424054  0.27242084    -0.78580
O180        O  0.50384876  0.35607771  0.23109547    -0.78500
O181        O  0.03448233  0.38364802  0.33557624    -0.78480
O182        O  0.05251122  0.33801577  0.18636955    -0.78520
C183        C  0.03268645  0.35465124  0.16414108     1.11210
C184        C  0.03091252  0.35246300  0.34355506     1.11090
C185        C  0.09489683  0.28709629  0.24782211     1.11230
C186        C  0.48735499  0.36373397  0.25808444     1.11110
O187        O  0.02005947  0.42854300  0.22974545    -0.78480
O188        O  0.13014769  0.33427834  0.28654048    -0.78560
O189        O  0.11213428  0.36251707  0.17596388    -0.78490
O190        O  0.08553553  0.41884362  0.30195580    -0.78470
O191        O  0.09584063  0.37103993  0.33408593    -0.78530
O192        O  0.08287158  0.40708004  0.19255663    -0.78490
O193        O  0.02130304  0.44452078  0.28805614    -0.78450
O194        O  0.12732042  0.37580458  0.24587261    -0.78520
Co195      Co  0.04317459  0.38175568  0.21681886     1.51530
Co196      Co  0.08394428  0.33325985  0.30202772     1.51690
Co197      Co  0.08927100  0.35770003  0.21940956     1.51570
Co198      Co  0.04305434  0.40193538  0.28529613     1.51470
O199        O  0.06392536  0.36388489  0.26362003    -1.40410
C200        C  0.01230188  0.44986328  0.25488088     1.11140
C201        C  0.14320595  0.35824493  0.26957218     1.11230
C202        C  0.10415760  0.39330012  0.17093975     1.11160
C203        C  0.09913595  0.40264237  0.32875079     1.11140
O204        O  0.34854030  0.40666823  0.18713347    -0.78480
O205        O  0.31203893  0.41899830  0.32100356    -0.78500
O206        O  0.27394329  0.43522604  0.20726594    -0.78510
O207        O  0.37180695  0.32899671  0.27631291    -0.78450
O208        O  0.27479183  0.43307817  0.26651166    -0.78580
O209        O  0.38121260  0.37108177  0.23846618    -0.78500
O210        O  0.34460535  0.37570082  0.30932804    -0.78480
O211        O  0.30481468  0.40207577  0.15505780    -0.78520
C212        C  0.33369156  0.41204368  0.15797089     1.11210
C213        C  0.33700343  0.40093127  0.32861755     1.11090
C214        C  0.26576879  0.44690283  0.23702784     1.11230
C215        C  0.39165527  0.34882058  0.26096155     1.11110
O216        O  0.35564231  0.30983184  0.21247609    -0.78480
O217        O  0.26214290  0.37904839  0.28579704    -0.78560
O218        O  0.27597140  0.34002618  0.18431001    -0.78490
O219        O  0.31383136  0.31904740  0.32385382    -0.78470
O220        O  0.28162105  0.36430874  0.31018617    -0.78530
O221        O  0.32243171  0.34333573  0.15695222    -0.78490
O222        O  0.31531738  0.29814132  0.24985625    -0.78450
O223        O  0.24096207  0.37677248  0.22979027    -0.78520
Co224      Co  0.35047240  0.35888126  0.20035160     1.51530
Co225      Co  0.30773123  0.39707455  0.27603678     1.51690
Co226      Co  0.27608953  0.38694585  0.19680821     1.51570
Co227      Co  0.32307219  0.34004980  0.27707898     1.51470
O228        O  0.31279899  0.37003579  0.23239329    -1.40410
C229        C  0.33878212  0.28861775  0.22968929     1.11140
C230        C  0.23808458  0.37492396  0.26356122     1.11230
C231        C  0.29267592  0.33449698  0.15718873     1.11160
C232        C  0.28951905  0.33840509  0.33141579     1.11140
C233        C  0.42638735  0.34617068  0.26636874    -0.11620
C234        C  0.45520806  0.35101187  0.26361123    -0.13170
C235        C  0.20599861  0.36827731  0.27596681    -0.11620
C236        C  0.17710232  0.36403722  0.27588021    -0.13090
C237        C  0.47588523  0.00550812  0.23813004    -0.11620
C238        C  0.99191965  0.97967569  0.24512847    -0.13170
C239        C  0.36924034  0.22910446  0.22841935    -0.11620
C240        C  0.35160298  0.25420288  0.22976200    -0.13170
C241        C  0.24436892  0.47539051  0.23775521    -0.11620
C242        C  0.22688262  0.49961693  0.24089984    -0.13170
C243        C  0.10865516  0.25360834  0.24787118    -0.11620
C244        C  0.12228370  0.22667922  0.25358442    -0.13170
C245        C  0.29527164  0.10981962  0.26762962    -0.11620
C246        C  0.32366734  0.11500273  0.26658228    -0.13170
C247        C  0.04776830  0.09528394  0.27656617    -0.11620
C248        C  0.07650454  0.09939625  0.27427306    -0.13170
C249        C  0.01640839  0.34276096  0.37666596    -0.11620
C250        C  0.50135170  0.34110991  0.40402587    -0.13170
C251        C  0.01629909  0.33936295  0.13455663    -0.11620
C252        C  0.49833786  0.34013404  0.10841844    -0.13170
C253        C  0.37606508  0.40370452  0.38436762    -0.11620
C254        C  0.35713581  0.40660160  0.35935144    -0.13170
C255        C  0.35339581  0.41724644  0.12696492    -0.11620
C256        C  0.37491266  0.41073119  0.10636135    -0.13170
C257        C  0.24877112  0.33965917  0.38575436    -0.11620
C258        C  0.26907177  0.33393165  0.36283274    -0.13170
C259        C  0.27396054  0.32929495  0.12469222    -0.11620
C260        C  0.25142167  0.33531372  0.10374036    -0.13170
C261        C  0.11643841  0.41917445  0.35688381    -0.11620
C262        C  0.13095394  0.41886528  0.38559316    -0.13170
C263        C  0.11900830  0.41051689  0.14017500    -0.11620
C264        C  0.13352586  0.41065433  0.11151990    -0.13170
C265        C  0.32560362  0.37193633  0.99154625    -0.11620
C266        C  0.29684762  0.36915627  0.49064772    -0.13170
C267        C  0.07504571  0.37694055  0.98413312    -0.11620
C268        C  0.04677771  0.38533872  0.98525816    -0.13170
C269        C  0.24814288  0.16141773  0.35138191    -0.11620
C270        C  0.26519382  0.16370887  0.37802470    -0.13170
C271        C  0.25528999  0.15482306  0.12004030    -0.11620
C272        C  0.23759001  0.15496531  0.14585806    -0.13170
C273        C  0.37673220  0.08641741  0.39288172    -0.11620
C274        C  0.39475190  0.08106676  0.36801321    -0.13170
C275        C  0.40656709  0.08709803  0.12572059    -0.11620
C276        C  0.38473831  0.09508699  0.10427978    -0.13170
C277        C  0.26152160  0.00874671  0.99593919    -0.11620
C278        C  0.24624960  0.48319206  0.49372745    -0.13170
C279        C  0.38339121  0.26417691  0.99859898    -0.11620
C280        C  0.36737460  0.23904434  0.99936298    -0.13170
C281        C  0.01097607  0.15601923  0.37506250    -0.11620
C282        C  0.49526515  0.15729001  0.34705469    -0.13170
C283        C  0.47384485  0.17040633  0.13276913    -0.11620
C284        C  0.99376355  0.16417218  0.10973618    -0.13170
C285        C  0.14110582  0.08722221  0.38229158    -0.11620
C286        C  0.12502509  0.08619429  0.40913288    -0.13170
C287        C  0.11190230  0.08777587  0.11345970    -0.11620
C288        C  0.12922186  0.08635455  0.14003904    -0.13170
C289        C  0.47932626  0.99605723  0.00660006    -0.11620
C290        C  0.99640902  0.02018512  0.00231289    -0.13170
C291        C  0.44700012  0.13184524  0.49033854    -0.11620
C292        C  0.41861346  0.12949048  0.49545905    -0.13170
C293        C  0.17002797  0.13214493  0.99972666    -0.11620
C294        C  0.19875769  0.12535293  0.00126855    -0.13170
C295        C  0.10936480  0.24153049  0.51065695    -0.11620
C296        C  0.12974437  0.26290727  0.50981400    -0.13170
O297        O  0.09543158  0.18948543  0.53441673    -0.78480
O298        O  0.49600307  0.11144757  0.97017124    -0.78500
O299        O  0.03809050  0.17238674  0.92783566    -0.78510
O300        O  0.01523402  0.11617131  0.58216418    -0.78450
O301        O  0.03463913  0.11729717  0.91763510    -0.78580
O302        O  0.03645232  0.16474692  0.56561464    -0.78500
O303        O  0.49583476  0.14164583  0.51785208    -0.78480
O304        O  0.06972954  0.20791742  0.98459036    -0.78520
C305        C  0.08892367  0.21274197  0.01102369     1.11210
C306        C  0.48119022  0.12969196  0.99176630     1.11090
C307        C  0.02844065  0.14831685  0.90857496     1.11230
C308        C  0.01663554  0.14783436  0.58588690     1.11110
O309        O  0.09570094  0.13833404  0.58617154    -0.78480
O310        O  0.08862953  0.08475671  0.95806805    -0.78560
O311        O  0.12477933  0.16358792  0.97773520    -0.78490
O312        O  0.01847157  0.07115111  0.52131419    -0.78470
O313        O  0.02755399  0.05471420  0.96394216    -0.78530
O314        O  0.11746299  0.12375263  0.51937053    -0.78490
O315        O  0.07548024  0.09321895  0.56192774    -0.78450
O316        O  0.09425494  0.13133998  0.92436447    -0.78520
Co317      Co  0.07692202  0.14380595  0.53943456     1.51530
Co318      Co  0.04314612  0.09869678  0.96861142     1.51690
Co319      Co  0.07988777  0.16806285  0.95560555     1.51570
Co320      Co  0.03589587  0.11855771  0.53612756     1.51470
O321        O  0.05693906  0.13826831  0.49137606    -1.40410
C322        C  0.09327075  0.10670520  0.58652480     1.11140
C323        C  0.10216195  0.10107095  0.93255541     1.11230
C324        C  0.13586545  0.13999678  0.49863927     1.11160
C325        C  0.01578536  0.04942821  0.49559689     1.11140
O326        O  0.28419492  0.05550724  0.52478929    -0.78480
O327        O  0.36556718  0.11429916  0.98676002    -0.78500
O328        O  0.33683228  0.08749111  0.93975095    -0.78510
O329        O  0.35067567  0.14195710  0.58797488    -0.78450
O330        O  0.35801000  0.13563057  0.91861417    -0.78580
O331        O  0.34280478  0.09416469  0.55804732    -0.78500
O332        O  0.37467634  0.14913524  0.52663539    -0.78480
O333        O  0.27953646  0.05580685  0.96339603    -0.78520
C334        C  0.27642411  0.04123864  0.49462171     1.11210
C335        C  0.38542140  0.12956033  0.50439713     1.11090
C336        C  0.35587109  0.10376402  0.91756095     1.11230
C337        C  0.35768827  0.11058578  0.58343538     1.11110
O338        O  0.28176206  0.11247035  0.58753754    -0.78480
O339        O  0.30061286  0.16952558  0.92878679    -0.78560
O340        O  0.24730504  0.11286523  0.97308777    -0.78490
O341        O  0.33616580  0.19921802  0.52981107    -0.78470
O342        O  0.35295813  0.18828273  0.97306092    -0.78530
O343        O  0.24841320  0.11464074  0.53115095    -0.78490
O344        O  0.28741753  0.16417349  0.56826679    -0.78450
O345        O  0.27940155  0.12064276  0.91913551    -0.78520
Co346      Co  0.29572479  0.10429909  0.53765831     1.51530
Co347      Co  0.33289058  0.14350177  0.95986824     1.51690
Co348      Co  0.29366504  0.10124128  0.96695991     1.51570
Co349      Co  0.32870686  0.15154592  0.54278553     1.51470
O350        O  0.30403802  0.14156131  0.49809848    -1.40410
C351        C  0.27588243  0.14360168  0.59133122     1.11140
C352        C  0.28227585  0.15139398  0.91013525     1.11230
C353        C  0.23287625  0.11727689  0.50195366     1.11160
C354        C  0.35034867  0.20781052  0.00033799     1.11140
O355        O  0.14461911  0.31478628  0.52992207    -0.78480
O356        O  0.24902531  0.39163285  0.96833078    -0.78500
O357        O  0.20922054  0.32757870  0.92942747    -0.78510
O358        O  0.22759003  0.38445734  0.57800291    -0.78450
O359        O  0.21668153  0.38179986  0.91414900    -0.78580
O360        O  0.20544774  0.33658412  0.56235195    -0.78500
O361        O  0.24693793  0.35952715  0.51591374    -0.78480
O362        O  0.17087603  0.29522600  0.98329040    -0.78520
C363        C  0.15059249  0.29139387  0.00851828     1.11210
C364        C  0.26274190  0.37222810  0.99093433     1.11090
C365        C  0.22380649  0.35019230  0.91103862     1.11230
C366        C  0.22621561  0.35258862  0.58198654     1.11110
O367        O  0.14572688  0.36273577  0.57972293    -0.78480
O368        O  0.15869972  0.41844045  0.94239633    -0.78560
O369        O  0.11953784  0.34373550  0.96690987    -0.78490
O370        O  0.22435222  0.43142528  0.51470864    -0.78470
O371        O  0.21912475  0.44719995  0.95502080    -0.78530
O372        O  0.12598152  0.38040974  0.51056238    -0.78490
O373        O  0.16750994  0.40850065  0.55733265    -0.78450
O374        O  0.15537755  0.37145135  0.91249156    -0.78520
Co375      Co  0.16532560  0.35901493  0.53378576     1.51530
Co376      Co  0.20246862  0.40382837  0.96087547     1.51690
Co377      Co  0.16527016  0.33534201  0.95022975     1.51570
Co378      Co  0.20687706  0.38345514  0.53168456     1.51470
O379        O  0.18618326  0.36526589  0.98630011    -1.40410
C380        C  0.14959524  0.39391899  0.58176042     1.11140
C381        C  0.14850872  0.40253567  0.91548021     1.11230
C382        C  0.10857374  0.36682037  0.98690917     1.11160
C383        C  0.22843793  0.45302110  0.98756010     1.11140
O384        O  0.47295827  0.44145322  0.53006833    -0.78480
O385        O  0.37550788  0.35508835  0.97184390    -0.78500
O386        O  0.40954565  0.42105456  0.93074900    -0.78510
O387        O  0.39898109  0.36257671  0.58248399    -0.78450
O388        O  0.40972310  0.36614731  0.91879444    -0.78580
O389        O  0.41736390  0.41222395  0.56363518    -0.78500
O390        O  0.37399146  0.38472946  0.51964919    -0.78480
O391        O  0.44239604  0.45817850  0.98326923    -0.78520
C392        C  0.46270014  0.46456966  0.50801162     1.11210
C393        C  0.35976604  0.37173996  0.49388323     1.11090
C394        C  0.39933790  0.39660800  0.91274920     1.11230
C395        C  0.39893807  0.39458399  0.58465334     1.11110
O396        O  0.47879561  0.38973202  0.58137139    -0.78480
O397        O  0.46856988  0.33729011  0.95524040    -0.78560
O398        O  0.49959270  0.41737398  0.97118404    -0.78490
O399        O  0.40244752  0.31602865  0.52060659    -0.78470
O400        O  0.41125915  0.30230595  0.96215297    -0.78530
O401        O  0.49750144  0.37673076  0.51297618    -0.78490
O402        O  0.45932433  0.34331184  0.55898057    -0.78450
O403        O  0.46755533  0.38365394  0.92036716    -0.78520
Co404      Co  0.45745111  0.39419584  0.53595305     1.51530
Co405      Co  0.42312652  0.34695477  0.96817690     1.51690
Co406      Co  0.45323614  0.41924174  0.95329061     1.51570
Co407      Co  0.41682713  0.36522778  0.53530900     1.51470
O408        O  0.43470878  0.38746174  0.49016187    -1.40410
C409        C  0.47772259  0.35796534  0.58224540     1.11140
C410        C  0.47871865  0.35434623  0.92841218     1.11230
C411        C  0.51311472  0.39352189  0.48989483     1.11160
C412        C  0.40077145  0.29497836  0.49385874     1.11140
O413        O  0.22486631  0.10600741  0.67533206    -0.78480
O414        O  0.21155017  0.16072620  0.80139627    -0.78500
O415        O  0.14314302  0.17381568  0.73691605    -0.78510
O416        O  0.25114092  0.07801168  0.78228231    -0.78450
O417        O  0.14884977  0.18915177  0.79523383    -0.78580
O418        O  0.24386557  0.12060706  0.74350920    -0.78500
O419        O  0.22190005  0.11373844  0.83438561    -0.78480
O420        O  0.20080805  0.15152086  0.69661579    -0.78520
C421        C  0.22004132  0.13741351  0.67340550     1.11210
C422        C  0.22674019  0.14477334  0.82711338     1.11090
C423        C  0.13903816  0.19533158  0.76254027     1.11230
C424        C  0.26190041  0.10283659  0.76470698     1.11110
O425        O  0.22244138  0.05559771  0.72548056    -0.78480
O426        O  0.12128689  0.13078548  0.78805040    -0.78560
O427        O  0.14171536  0.13144720  0.67549653    -0.78490
O428        O  0.16600603  0.07277127  0.82905252    -0.78470
O429        O  0.16125640  0.12721704  0.84103197    -0.78530
O430        O  0.16630531  0.08264100  0.69065228    -0.78490
O431        O  0.19607692  0.03749638  0.77377425    -0.78450
O432        O  0.12255316  0.10299600  0.73846843    -0.78520
Co433      Co  0.20479549  0.10208249  0.72036361     1.51530
Co434      Co  0.16710778  0.14572898  0.79006302     1.51690
Co435      Co  0.16184490  0.12661984  0.72175297     1.51570
Co436      Co  0.20705349  0.07639162  0.80308307     1.51470
O437        O  0.18357912  0.10698582  0.76701760    -1.40410
C438        C  0.21297977  0.03198867  0.74604858     1.11140
C439        C  0.10837995  0.11091300  0.76688264     1.11230
C440        C  0.14674809  0.10048212  0.66942916     1.11160
C441        C  0.15671083  0.09615106  0.84927812     1.11140
O442        O  0.41210779  0.08288140  0.68766047    -0.78480
O443        O  0.43248360  0.06437650  0.82325822    -0.78500
O444        O  0.48128725  0.06154455  0.71842871    -0.78510
O445        O  0.36942466  0.14684815  0.77228552    -0.78450
O446        O  0.43701235  0.04963235  0.74899027    -0.78580
O447        O  0.37052489  0.10475180  0.73546476    -0.78500
O448        O  0.40950429  0.11660263  0.81998384    -0.78480
O449        O  0.45420209  0.09814472  0.65986634    -0.78520
C450        C  0.42648607  0.08527856  0.65852081     1.11210
C451        C  0.41308448  0.08690269  0.83567340     1.11090
C452        C  0.46274866  0.03989770  0.73297013     1.11230
C453        C  0.35639761  0.12167669  0.75889976     1.11110
O454        O  0.37894416  0.17350312  0.71140355    -0.78480
O455        O  0.99345109  0.07761633  0.78187972    -0.78560
O456        O  0.47262389  0.15957378  0.69385001    -0.78490
O457        O  0.46021917  0.16859391  0.79635699    -0.78470
O458        O  0.46692278  0.11767564  0.81675861    -0.78530
O459        O  0.42677258  0.15333316  0.66379373    -0.78490
O460        O  0.41524956  0.19503044  0.74694019    -0.78450
O461        O  0.00406170  0.12268160  0.74860850    -0.78520
Co462      Co  0.39931488  0.12782828  0.70203566     1.51530
Co463      Co  0.44482056  0.08825963  0.78035757     1.51690
Co464      Co  0.47606982  0.11190259  0.70762859     1.51570
Co465      Co  0.41663426  0.15481950  0.78022897     1.51470
O466        O  0.43639136  0.12312814  0.74030574    -1.40410
C467        C  0.38964930  0.19855567  0.72762282     1.11140
C468        C  0.01368468  0.09864211  0.76947324     1.11230
C469        C  0.45570767  0.16464470  0.66554708     1.11160
C470        C  0.47388345  0.14797315  0.81813375     1.11140
O471        O  0.02551746  0.38529007  0.66961663    -0.78480
O472        O  0.04086787  0.32964862  0.82314786    -0.78500
O473        O  0.10623764  0.30995679  0.72707664    -0.78510
O474        O  0.49821392  0.38441454  0.77972787    -0.78450
O475        O  0.07506755  0.29424046  0.77242057    -0.78580
O476        O  0.50384862  0.35607738  0.73109605    -0.78500
O477        O  0.03448258  0.38364894  0.83557509    -0.78480
O478        O  0.05251141  0.33801546  0.68636950    -0.78520
C479        C  0.03268627  0.35465062  0.66414117     1.11210
C480        C  0.03091205  0.35246400  0.84355378     1.11090
C481        C  0.09489674  0.28709607  0.74782211     1.11230
C482        C  0.48735496  0.36373441  0.75808482     1.11110
O483        O  0.02005937  0.42854299  0.72974489    -0.78480
O484        O  0.13014742  0.33427796  0.78654071    -0.78560
O485        O  0.11213447  0.36251692  0.67596386    -0.78490
O486        O  0.08553658  0.41884349  0.80195450    -0.78470
O487        O  0.09584033  0.37104004  0.83408551    -0.78530
O488        O  0.08287110  0.40707966  0.69255630    -0.78490
O489        O  0.02130444  0.44452174  0.78805520    -0.78450
O490        O  0.12732066  0.37580412  0.74587266    -0.78520
Co491      Co  0.04317429  0.38175538  0.71681868     1.51530
Co492      Co  0.08394385  0.33325989  0.80202739     1.51690
Co493      Co  0.08927121  0.35769981  0.71940945     1.51570
Co494      Co  0.04305503  0.40193604  0.78529507     1.51470
O495        O  0.06392543  0.36388497  0.76361959    -1.40410
C496        C  0.01230250  0.44986376  0.75488013     1.11140
C497        C  0.14320595  0.35824439  0.76957240     1.11230
C498        C  0.10415735  0.39329987  0.67093963     1.11160
C499        C  0.09913651  0.40264230  0.82874980     1.11140
O500        O  0.34853981  0.40666847  0.68713366    -0.78480
O501        O  0.31203858  0.41899840  0.82100355    -0.78500
O502        O  0.27394236  0.43522554  0.70726600    -0.78510
O503        O  0.37180699  0.32899708  0.77631297    -0.78450
O504        O  0.27479132  0.43307782  0.76651174    -0.78580
O505        O  0.38121252  0.37108225  0.73846634    -0.78500
O506        O  0.34460516  0.37570099  0.80932822    -0.78480
O507        O  0.30481424  0.40207553  0.65505802    -0.78520
C508        C  0.33369105  0.41204366  0.65797105     1.11210
C509        C  0.33700318  0.40093154  0.82861757     1.11090
C510        C  0.26576806  0.44690237  0.73702795     1.11230
C511        C  0.39165521  0.34882117  0.76096183     1.11110
O512        O  0.35564262  0.30983211  0.71247626    -0.78480
O513        O  0.26214287  0.37904796  0.78579731    -0.78560
O514        O  0.27597171  0.34002557  0.68431051    -0.78490
O515        O  0.31383186  0.31904712  0.82385374    -0.78470
O516        O  0.28162127  0.36430835  0.81018629    -0.78530
O517        O  0.32243179  0.34333570  0.65695242    -0.78490
O518        O  0.31531755  0.29814144  0.74985618    -0.78450
O519        O  0.24096195  0.37677160  0.72979062    -0.78520
Co520      Co  0.35047238  0.35888150  0.70035177     1.51530
Co521      Co  0.30773102  0.39707451  0.77603686     1.51690
Co522      Co  0.27608923  0.38694532  0.69680846     1.51570
Co523      Co  0.32307221  0.34004985  0.77707904     1.51470
O524        O  0.31279892  0.37003579  0.73239343    -1.40410
C525        C  0.33878235  0.28861796  0.72968925     1.11140
C526        C  0.23808455  0.37492322  0.76356160     1.11230
C527        C  0.29267611  0.33449664  0.65718908     1.11160
C528        C  0.28951949  0.33840467  0.83141579     1.11140
C529        C  0.42638724  0.34617156  0.76636939    -0.11620
C530        C  0.45520795  0.35101268  0.76361199    -0.13170
C531        C  0.20599865  0.36827645  0.77596731    -0.11620
C532        C  0.17710234  0.36403643  0.77588066    -0.13090
C533        C  0.47588516  0.00550836  0.73813004    -0.11620
C534        C  0.99191970  0.97967569  0.74512854    -0.13170
C535        C  0.36924035  0.22910461  0.72841905    -0.11620
C536        C  0.35160309  0.25420309  0.72976176    -0.13170
C537        C  0.24436826  0.47539009  0.73775542    -0.11620
C538        C  0.22688219  0.49961665  0.74090022    -0.13170
C539        C  0.10865512  0.25360808  0.74787144    -0.11620
C540        C  0.12228374  0.22667895  0.75358461    -0.13170
C541        C  0.29527166  0.10981947  0.76762987    -0.11620
C542        C  0.32366732  0.11500282  0.76658260    -0.13170
C543        C  0.04776823  0.09528413  0.77656627    -0.11620
C544        C  0.07650450  0.09939624  0.77427325    -0.13170
C545        C  0.01640771  0.34276224  0.87666451    -0.11620
C546        C  0.50135153  0.34111095  0.90402512    -0.13170
C547        C  0.01629897  0.33936203  0.63455691    -0.11620
C548        C  0.49833745  0.34013305  0.60841891    -0.13170
C549        C  0.37606504  0.40370544  0.88436738    -0.11620
C550        C  0.35713564  0.40660222  0.85935131    -0.13170
C551        C  0.35339531  0.41724612  0.62696505    -0.11620
C552        C  0.37491220  0.41073061  0.60636161    -0.13170
C553        C  0.24877177  0.33965879  0.88575429    -0.11620
C554        C  0.26907239  0.33393109  0.86283275    -0.13170
C555        C  0.27396057  0.32929472  0.62469267    -0.11620
C556        C  0.25142154  0.33531347  0.60374103    -0.13170
C557        C  0.11643938  0.41917436  0.85688247    -0.11620
C558        C  0.13095499  0.41886537  0.88559173    -0.13170
C559        C  0.11900782  0.41051682  0.64017499    -0.11620
C560        C  0.13352537  0.41065425  0.61151996    -0.13170
C561        C  0.32560321  0.37193542  0.49154669    -0.11620
C562        C  0.29684807  0.36915693  0.99064721    -0.13170
C563        C  0.07504537  0.37693948  0.48413434    -0.11620
C564        C  0.04677736  0.38533749  0.48525931    -0.13170
C565        C  0.24814301  0.16141778  0.85138180    -0.11620
C566        C  0.26519387  0.16370935  0.87802458    -0.13170
C567        C  0.25529011  0.15482187  0.62004050    -0.11620
C568        C  0.23759011  0.15496443  0.64585822    -0.13170
C569        C  0.37673232  0.08641842  0.89288218    -0.11620
C570        C  0.39475199  0.08106766  0.86801368    -0.13170
C571        C  0.40656699  0.08709755  0.62572084    -0.11620
C572        C  0.38473820  0.09508625  0.60427993    -0.13170
C573        C  0.26152149  0.00874598  0.49593905    -0.11620
C574        C  0.24624998  0.48319255  0.99372665    -0.13170
C575        C  0.38339088  0.26417579  0.49859950    -0.11620
C576        C  0.36737443  0.23904311  0.49936328    -0.13170
C577        C  0.01097620  0.15601976  0.87506229    -0.11620
C578        C  0.49526519  0.15729068  0.84705451    -0.13170
C579        C  0.47384462  0.17040607  0.63276904    -0.11620
C580        C  0.99376326  0.16417155  0.60973603    -0.13170
C581        C  0.14110598  0.08722221  0.88229189    -0.11620
C582        C  0.12502512  0.08619449  0.90913310    -0.13170
C583        C  0.11190220  0.08777533  0.61345993    -0.11620
C584        C  0.12922178  0.08635402  0.64003927    -0.13170
C585        C  0.47932630  0.99605633  0.50660001    -0.11620
C586        C  0.99640914  0.02018424  0.50231284    -0.13170
C587        C  0.44700019  0.13184652  0.99033863    -0.11620
C588        C  0.41861353  0.12949195  0.99545921    -0.13170
C589        C  0.17002788  0.13214438  0.49972663    -0.11620
C590        C  0.19875759  0.12535233  0.50126844    -0.13170
C591        C  0.10936498  0.24153104  0.01065657    -0.11620
C592        C  0.12974452  0.26290785  0.00981348    -0.13170
O593        O  0.09543177  0.68948597  0.03441650    -0.78480
O594        O  0.49600320  0.61144658  0.47017140    -0.78500
O595        O  0.03809038  0.67238602  0.42783589    -0.78510
O596        O  0.01523418  0.61617194  0.08216408    -0.78450
O597        O  0.03463917  0.61729643  0.41763527    -0.78580
O598        O  0.03645250  0.66474756  0.06561465    -0.78500
O599        O  0.49583490  0.64164683  0.01785224    -0.78480
O600        O  0.06972935  0.70791680  0.48459062    -0.78520
C601        C  0.08892347  0.71274138  0.51102395     1.11210
C602        C  0.48119023  0.62969095  0.49176638     1.11090
C603        C  0.02844060  0.64831611  0.40857516     1.11230
C604        C  0.01663573  0.64783498  0.08588691     1.11110
O605        O  0.09570112  0.63833446  0.08617127    -0.78480
O606        O  0.08862974  0.58475612  0.45806808    -0.78560
O607        O  0.12477922  0.66358739  0.47773542    -0.78490
O608        O  0.01847141  0.57115202  0.02131396    -0.78470
O609        O  0.02755424  0.55471331  0.46394242    -0.78530
O610        O  0.11746295  0.62375309  0.01937018    -0.78490
O611        O  0.07548025  0.59321949  0.06192739    -0.78450
O612        O  0.09425494  0.63133949  0.42436460    -0.78520
Co613      Co  0.07692209  0.64380653  0.03943435     1.51530
Co614      Co  0.04314628  0.59869599  0.46861155     1.51690
Co615      Co  0.07988766  0.66806225  0.45560577     1.51570
Co616      Co  0.03589591  0.61855848  0.03612741     1.51470
O617        O  0.05693901  0.63826907  0.99137587    -1.40410
C618        C  0.09327083  0.60670563  0.08652445     1.11140
C619        C  0.10216204  0.60107046  0.43255541     1.11230
C620        C  0.13586546  0.63999722  0.99863897     1.11160
C621        C  0.01578501  0.54942920  0.99559664     1.11140
O622        O  0.28419531  0.55550739  0.02478947    -0.78480
O623        O  0.36556721  0.61429771  0.48675981    -0.78500
O624        O  0.33683217  0.58749002  0.43975052    -0.78510
O625        O  0.35067542  0.64195783  0.08797498    -0.78450
O626        O  0.35801023  0.63562941  0.41861401    -0.78580
O627        O  0.34280490  0.59416552  0.05804699    -0.78500
O628        O  0.37467623  0.64913685  0.02663571    -0.78480
O629        O  0.27953650  0.55580576  0.46339551    -0.78520
C630        C  0.27642436  0.54123922  0.99462170     1.11210
C631        C  0.38542135  0.62956204  0.00439739     1.11090
C632        C  0.35587110  0.60376290  0.41756063     1.11230
C633        C  0.35768819  0.61058657  0.08343523     1.11110
O634        O  0.28176201  0.61247179  0.08753681    -0.78480
O635        O  0.30061316  0.66952446  0.42878658    -0.78560
O636        O  0.24730488  0.61286366  0.47308785    -0.78490
O637        O  0.33616575  0.69921954  0.02981108    -0.78470
O638        O  0.35295831  0.68828142  0.47306090    -0.78530
O639        O  0.24841316  0.61464030  0.03115067    -0.78490
O640        O  0.28741734  0.66417507  0.06826665    -0.78450
O641        O  0.27940136  0.62064181  0.41913545    -0.78520
Co642      Co  0.29572492  0.60429932  0.03765777     1.51530
Co643      Co  0.33289074  0.64350050  0.45986801     1.51690
Co644      Co  0.29366498  0.60124004  0.46695971     1.51570
Co645      Co  0.32870671  0.65154746  0.04278570     1.51470
O646        O  0.30403788  0.64156255  0.99809883    -1.40410
C647        C  0.27588215  0.64360303  0.09133071     1.11140
C648        C  0.28227590  0.65139301  0.41013517     1.11230
C649        C  0.23287626  0.61727738  0.00195339     1.11160
C650        C  0.35034870  0.70780918  0.50033797     1.11140
O651        O  0.14461927  0.81478689  0.02992182    -0.78480
O652        O  0.24902500  0.89163231  0.46833176    -0.78500
O653        O  0.20922051  0.82757826  0.42942817    -0.78510
O654        O  0.22759029  0.88445784  0.07800283    -0.78450
O655        O  0.21668126  0.88179948  0.41414980    -0.78580
O656        O  0.20544794  0.83658466  0.06235176    -0.78500
O657        O  0.24693831  0.85952786  0.01591366    -0.78480
O658        O  0.17087601  0.79522543  0.48329123    -0.78520
C659        C  0.15059236  0.79139326  0.50851901     1.11210
C660        C  0.26274155  0.87222755  0.49093536     1.11090
C661        C  0.22380633  0.85019196  0.41103930     1.11230
C662        C  0.22621581  0.85258911  0.08198640     1.11110
O663        O  0.14572700  0.86273615  0.07972263    -0.78480
O664        O  0.15869937  0.91843982  0.44239710    -0.78560
O665        O  0.11953771  0.84373464  0.46691053    -0.78490
O666        O  0.22435237  0.93142596  0.01470856    -0.78470
O667        O  0.21912433  0.94719942  0.45502162    -0.78530
O668        O  0.12598180  0.88041030  0.01056200    -0.78490
O669        O  0.16751014  0.90850110  0.05733269    -0.78450
O670        O  0.15537732  0.87145071  0.41249231    -0.78520
Co671      Co  0.16532584  0.85901548  0.03378552     1.51530
Co672      Co  0.20246829  0.90382782  0.46087632     1.51690
Co673      Co  0.16527006  0.83534137  0.45023048     1.51570
Co674      Co  0.20687734  0.88345572  0.03168447     1.51470
O675        O  0.18618301  0.86526530  0.48630088    -1.40410
C676        C  0.14959537  0.89391933  0.08176034     1.11140
C677        C  0.14850841  0.90253502  0.41548096     1.11230
C678        C  0.10857350  0.86681955  0.48690971     1.11160
C679        C  0.22843752  0.95302061  0.48756091     1.11140
O680        O  0.47295866  0.94145398  0.03006811    -0.78480
O681        O  0.37550749  0.85508727  0.47184447    -0.78500
O682        O  0.40954522  0.92105372  0.43074954    -0.78510
O683        O  0.39898154  0.86257717  0.08248349    -0.78450
O684        O  0.40972245  0.86614650  0.41879485    -0.78580
O685        O  0.41736440  0.91222451  0.06363510    -0.78500
O686        O  0.37399197  0.88473058  0.01964884    -0.78480
O687        O  0.44239602  0.95817755  0.48326958    -0.78520
C688        C  0.46270034  0.96457049  0.00801160     1.11210
C689        C  0.35976642  0.87174109  0.99388296     1.11090
C690        C  0.39933732  0.89660724  0.41274973     1.11230
C691        C  0.39893854  0.89458441  0.08465313     1.11110
O692        O  0.47879623  0.88973262  0.08137089    -0.78480
O693        O  0.46856947  0.83728913  0.45524035    -0.78560
O694        O  0.49959243  0.91737280  0.47118408    -0.78490
O695        O  0.40244793  0.81602968  0.02060590    -0.78470
O696        O  0.41125875  0.80230495  0.46215322    -0.78530
O697        O  0.49750191  0.87673170  0.01297553    -0.78490
O698        O  0.45932477  0.84331257  0.05897996    -0.78450
O699        O  0.46755470  0.88365300  0.42036722    -0.78520
Co700      Co  0.45745160  0.89419659  0.03595264     1.51530
Co701      Co  0.42312614  0.84695377  0.46817717     1.51690
Co702      Co  0.45323580  0.91924074  0.45329088     1.51570
Co703      Co  0.41682758  0.86522869  0.03530853     1.51470
O704        O  0.43470917  0.88746267  0.99016145    -1.40410
C705        C  0.47772309  0.85796594  0.08224483     1.11140
C706        C  0.47871817  0.85434534  0.42841216     1.11230
C707        C  0.51311510  0.89352292  0.98989415     1.11160
C708        C  0.40077173  0.79497945  0.99385803     1.11140
O709        O  0.22486627  0.60600775  0.17533170    -0.78480
O710        O  0.21155015  0.66072607  0.30139625    -0.78500
O711        O  0.14314291  0.67381564  0.23691597    -0.78510
O712        O  0.25114084  0.57801170  0.28228197    -0.78450
O713        O  0.14884975  0.68915172  0.29523375    -0.78580
O714        O  0.24386551  0.62060716  0.24350893    -0.78500
O715        O  0.22189992  0.61373817  0.33438541    -0.78480
O716        O  0.20080784  0.65152105  0.19661556    -0.78520
C717        C  0.22004113  0.63741384  0.17340520     1.11210
C718        C  0.22674014  0.64477307  0.32711330     1.11090
C719        C  0.13903809  0.69533153  0.26254020     1.11230
C720        C  0.26190034  0.60283665  0.26470669     1.11110
O721        O  0.22244141  0.55559786  0.22548011    -0.78480
O722        O  0.12128684  0.63078547  0.28805019    -0.78560
O723        O  0.14171516  0.63144732  0.17549638    -0.78490
O724        O  0.16600589  0.57277111  0.32905212    -0.78470
O725        O  0.16125630  0.62721684  0.34103176    -0.78530
O726        O  0.16630530  0.58264116  0.19065191    -0.78490
O727        O  0.19607684  0.53749640  0.27377367    -0.78450
O728        O  0.12255311  0.60299593  0.23846825    -0.78520
Co729      Co  0.20479546  0.60208264  0.22036328     1.51530
Co730      Co  0.16710774  0.64572893  0.29006287     1.51690
Co731      Co  0.16184479  0.62661988  0.22175275     1.51570
Co732      Co  0.20705338  0.57639152  0.30308269     1.51470
O733        O  0.18357909  0.60698585  0.26701731    -1.40410
C734        C  0.21297985  0.53198876  0.24604810     1.11140
C735        C  0.10837990  0.61091295  0.26688245     1.11230
C736        C  0.14674800  0.60048229  0.16942888     1.11160
C737        C  0.15671072  0.59615084  0.34927782     1.11140
O738        O  0.41210775  0.58288152  0.18766018    -0.78480
O739        O  0.43248361  0.56437583  0.32325778    -0.78500
O740        O  0.48128715  0.56154426  0.21842847    -0.78510
O741        O  0.36942470  0.64684793  0.27228555    -0.78450
O742        O  0.43701211  0.54963223  0.24898983    -0.78580
O743        O  0.37052485  0.60475180  0.23546451    -0.78500
O744        O  0.40950427  0.61660196  0.31998367    -0.78480
O745        O  0.45420209  0.59814477  0.15986614    -0.78520
C746        C  0.42648601  0.58527877  0.15852053     1.11210
C747        C  0.41308444  0.58690193  0.33567305     1.11090
C748        C  0.46274846  0.53989746  0.23296986     1.11230
C749        C  0.35639758  0.62167660  0.25889960     1.11110
O750        O  0.37894432  0.67350321  0.21140369    -0.78480
O751        O  0.99345104  0.57761615  0.28187939    -0.78560
O752        O  0.47262408  0.65957361  0.19385007    -0.78490
O753        O  0.46021924  0.66859337  0.29635723    -0.78470
O754        O  0.46692276  0.61767501  0.31675860    -0.78530
O755        O  0.42677273  0.65333331  0.16379375    -0.78490
O756        O  0.41524965  0.69503029  0.24694062    -0.78450
O757        O  0.00406168  0.62268154  0.24860840    -0.78520
Co758      Co  0.39931494  0.62782836  0.20203556     1.51530
Co759      Co  0.44482050  0.58825927  0.28035735     1.51690
Co760      Co  0.47606984  0.61190238  0.20762848     1.51570
Co761      Co  0.41663430  0.65481911  0.28022910     1.51470
O762        O  0.43639140  0.62312796  0.24030566    -1.40410
C763        C  0.38964943  0.69855565  0.22762318     1.11140
C764        C  0.01368464  0.59864200  0.26947306     1.11230
C765        C  0.45570787  0.66464475  0.16554718     1.11160
C766        C  0.47388348  0.64797250  0.31813390     1.11140
O767        O  0.02551725  0.88529007  0.16961676    -0.78480
O768        O  0.04086791  0.82964814  0.32314804    -0.78500
O769        O  0.10623743  0.80995664  0.22707645    -0.78510
O770        O  0.49821390  0.88441426  0.27972783    -0.78450
O771        O  0.07506740  0.79424027  0.27242041    -0.78580
O772        O  0.50384867  0.85607748  0.23109574    -0.78500
O773        O  0.03448247  0.88364842  0.33557540    -0.78480
O774        O  0.05251109  0.83801536  0.18636943    -0.78520
C775        C  0.03268601  0.85465065  0.16414115     1.11210
C776        C  0.03091204  0.85246344  0.34355402     1.11090
C777        C  0.09489656  0.78709591  0.24782193     1.11230
C778        C  0.48735498  0.86373429  0.25808458     1.11110
O779        O  0.02005928  0.92854278  0.22974515    -0.78480
O780        O  0.13014735  0.83427776  0.28654049    -0.78560
O781        O  0.11213414  0.86251678  0.17596369    -0.78490
O782        O  0.08553639  0.91884318  0.30195504    -0.78470
O783        O  0.09584034  0.87103954  0.33408565    -0.78530
O784        O  0.08287097  0.90707955  0.19255632    -0.78490
O785        O  0.02130418  0.94452138  0.28805552    -0.78450
O786        O  0.12732044  0.87580395  0.24587248    -0.78520
Co787      Co  0.04317416  0.88175522  0.21681878     1.51530
Co788      Co  0.08394381  0.83325956  0.30202736     1.51690
Co789      Co  0.08927096  0.85769965  0.21940936     1.51570
Co790      Co  0.04305488  0.90193570  0.28529542     1.51470
O791        O  0.06392532  0.86388476  0.26361968    -1.40410
C792        C  0.01230235  0.94986348  0.25488042     1.11140
C793        C  0.14320580  0.85824423  0.26957217     1.11230
C794        C  0.10415715  0.89329977  0.17093956     1.11160
C795        C  0.09913638  0.90264185  0.32875023     1.11140
O796        O  0.34854005  0.90666848  0.18713377    -0.78480
O797        O  0.31203817  0.91899827  0.32100394    -0.78500
O798        O  0.27394281  0.93522596  0.20726615    -0.78510
O799        O  0.37180696  0.82899714  0.27631324    -0.78450
O800        O  0.27479117  0.93307800  0.26651189    -0.78580
O801        O  0.38121249  0.87108226  0.23846657    -0.78500
O802        O  0.34460505  0.87570116  0.30932834    -0.78480
O803        O  0.30481452  0.90207574  0.15505804    -0.78520
C804        C  0.33369139  0.91204369  0.15797111     1.11210
C805        C  0.33700284  0.90093148  0.32861792     1.11090
C806        C  0.26576826  0.94690275  0.23702805     1.11230
C807        C  0.39165520  0.84882115  0.26096199     1.11110
O808        O  0.35564256  0.80983212  0.21247650    -0.78480
O809        O  0.26214267  0.87904785  0.28579731    -0.78560
O810        O  0.27597156  0.84002601  0.18431045    -0.78490
O811        O  0.31383167  0.81904735  0.32385404    -0.78470
O812        O  0.28162089  0.86430837  0.31018641    -0.78530
O813        O  0.32243181  0.84333579  0.15695260    -0.78490
O814        O  0.31531755  0.79814146  0.24985650    -0.78450
O815        O  0.24096189  0.87677220  0.22979050    -0.78520
Co816      Co  0.35047239  0.85888153  0.20035197     1.51530
Co817      Co  0.30773078  0.89707455  0.27603710     1.51690
Co818      Co  0.27608936  0.88694574  0.19680848     1.51570
Co819      Co  0.32307216  0.84004997  0.27707926     1.51470
O820        O  0.31279888  0.87003591  0.23239358    -1.40410
C821        C  0.33878236  0.78861797  0.22968959     1.11140
C822        C  0.23808439  0.87492342  0.26356145     1.11230
C823        C  0.29267606  0.83449693  0.15718913     1.11160
C824        C  0.28951920  0.83840480  0.33141603     1.11140
C825        C  0.42638727  0.84617138  0.26636926    -0.11620
C826        C  0.45520799  0.85101247  0.26361168    -0.13170
C827        C  0.20599846  0.86827650  0.27596699    -0.11620
C828        C  0.17710218  0.86403635  0.27588034    -0.13090
C829        C  0.47588489  0.50550812  0.23813017    -0.11620
C830        C  0.99191938  0.47967562  0.24512882    -0.13170
C831        C  0.36924050  0.72910463  0.22841951    -0.11620
C832        C  0.35160321  0.75420310  0.22976220    -0.13170
C833        C  0.24436860  0.97539062  0.23775539    -0.11620
C834        C  0.22688252  0.99961724  0.24089996    -0.13170
C835        C  0.10865500  0.75360796  0.24787129    -0.11620
C836        C  0.12228365  0.72667887  0.25358455    -0.13170
C837        C  0.29527160  0.60981948  0.26762959    -0.11620
C838        C  0.32366727  0.61500278  0.26658235    -0.13170
C839        C  0.04776818  0.59528403  0.27656613    -0.11620
C840        C  0.07650445  0.59939619  0.27427310    -0.13170
C841        C  0.01640766  0.84276157  0.37666472    -0.11620
C842        C  0.50135122  0.84111030  0.40402510    -0.13170
C843        C  0.01629882  0.83936226  0.13455666    -0.11620
C844        C  0.49833780  0.84013354  0.10841839    -0.13170
C845        C  0.37606445  0.90370488  0.38436797    -0.11620
C846        C  0.35713512  0.90660194  0.35935185    -0.13170
C847        C  0.35339576  0.91724613  0.12696512    -0.11620
C848        C  0.37491266  0.91073083  0.10636160    -0.13170
C849        C  0.24877155  0.83965866  0.38575476    -0.11620
C850        C  0.26907211  0.83393119  0.36283306    -0.13170
C851        C  0.27396062  0.82929503  0.12469265    -0.11620
C852        C  0.25142167  0.83531388  0.10374092    -0.13170
C853        C  0.11643914  0.91917378  0.35688311    -0.11620
C854        C  0.13095467  0.91886469  0.38559245    -0.13170
C855        C  0.11900776  0.91051677  0.14017499    -0.11620
C856        C  0.13352542  0.91065438  0.11152000    -0.13170
C857        C  0.32560360  0.87193654  0.99154664    -0.11620
C858        C  0.29684772  0.86915616  0.49064819    -0.13170
C859        C  0.07504578  0.87694030  0.98413347    -0.11620
C860        C  0.04677778  0.88533846  0.98525839    -0.13170
C861        C  0.24814303  0.66141731  0.35138178    -0.11620
C862        C  0.26519393  0.66370858  0.37802458    -0.13170
C863        C  0.25528970  0.65482282  0.12004008    -0.11620
C864        C  0.23758977  0.65496495  0.14585788    -0.13170
C865        C  0.37673223  0.58641730  0.39288178    -0.11620
C866        C  0.39475190  0.58106668  0.36801324    -0.13170
C867        C  0.40656691  0.58709810  0.12572058    -0.11620
C868        C  0.38473812  0.59508701  0.10427975    -0.13170
C869        C  0.26152182  0.50874651  0.99593858    -0.11620
C870        C  0.24624959  0.98319204  0.49372738    -0.13170
C871        C  0.38339104  0.76417698  0.99859888    -0.11620
C872        C  0.36737440  0.73904444  0.99936296    -0.13170
C873        C  0.01097612  0.65601900  0.37506251    -0.11620
C874        C  0.49526522  0.65728989  0.34705472    -0.13170
C875        C  0.47384484  0.67040635  0.13276919    -0.11620
C876        C  0.99376345  0.66417209  0.10973609    -0.13170
C877        C  0.14110592  0.58722192  0.38229162    -0.11620
C878        C  0.12502515  0.58619412  0.40913292    -0.13170
C879        C  0.11190223  0.58777564  0.11345954    -0.11620
C880        C  0.12922175  0.58635423  0.14003892    -0.13170
C881        C  0.47932599  0.49605744  0.00659982    -0.11620
C882        C  0.99640879  0.52018528  0.00231265    -0.13170
C883        C  0.44700020  0.63184526  0.49033867    -0.11620
C884        C  0.41861354  0.62949051  0.49545917    -0.13170
C885        C  0.17002787  0.63214477  0.99972643    -0.11620
C886        C  0.19875759  0.62535273  0.00126829    -0.13170
C887        C  0.10936474  0.74153049  0.51065692    -0.11620
C888        C  0.12974431  0.76290727  0.50981401    -0.13170
O889        O  0.09543159  0.68948544  0.53441672    -0.78480
O890        O  0.49600294  0.61144780  0.97017133    -0.78500
O891        O  0.03809039  0.67238697  0.92783565    -0.78510
O892        O  0.01523399  0.61617143  0.58216423    -0.78450
O893        O  0.03463890  0.61729743  0.91763501    -0.78580
O894        O  0.03645235  0.66474700  0.56561465    -0.78500
O895        O  0.49583488  0.64164582  0.51785214    -0.78480
O896        O  0.06972963  0.70791752  0.98459038    -0.78520
C897        C  0.08892376  0.71274196  0.01102375     1.11210
C898        C  0.48119013  0.62969217  0.99176645     1.11090
C899        C  0.02844047  0.64831713  0.90857492     1.11230
C900        C  0.01663555  0.64783449  0.58588693     1.11110
O901        O  0.09570094  0.63833407  0.58617161    -0.78480
O902        O  0.08862929  0.58475681  0.95806785    -0.78560
O903        O  0.12477927  0.66358787  0.97773507    -0.78490
O904        O  0.01847153  0.57115113  0.52131432    -0.78470
O905        O  0.02755371  0.55471439  0.96394192    -0.78530
O906        O  0.11746302  0.62375262  0.51937062    -0.78490
O907        O  0.07548020  0.59321898  0.56192783    -0.78450
O908        O  0.09425474  0.63134008  0.92436431    -0.78520
Co909      Co  0.07692205  0.64380596  0.53943461     1.51530
Co910      Co  0.04314591  0.59869693  0.96861128     1.51690
Co911      Co  0.07988769  0.66806294  0.95560549     1.51570
Co912      Co  0.03589586  0.61855775  0.53612761     1.51470
O913        O  0.05693911  0.63826825  0.49137611    -1.40410
C914        C  0.09327072  0.60670522  0.58652487     1.11140
C915        C  0.10216172  0.60107105  0.93255523     1.11230
C916        C  0.13586548  0.63999676  0.49863933     1.11160
C917        C  0.01578534  0.54942819  0.49559706     1.11140
O918        O  0.28419489  0.55550728  0.52478932    -0.78480
O919        O  0.36556713  0.61429932  0.98676003    -0.78500
O920        O  0.33683230  0.58749122  0.93975095    -0.78510
O921        O  0.35067565  0.64195709  0.58797489    -0.78450
O922        O  0.35800996  0.63563070  0.91861417    -0.78580
O923        O  0.34280475  0.59416469  0.55804732    -0.78500
O924        O  0.37467636  0.64913527  0.52663544    -0.78480
O925        O  0.27953647  0.55580688  0.96339568    -0.78520
C926        C  0.27642415  0.54123862  0.49462175     1.11210
C927        C  0.38542146  0.62956037  0.50439719     1.11090
C928        C  0.35587111  0.60376415  0.91756097     1.11230
C929        C  0.35768823  0.61058576  0.58343539     1.11110
O930        O  0.28176206  0.61247041  0.58753753    -0.78480
O931        O  0.30061278  0.66952567  0.92878675    -0.78560
O932        O  0.24730498  0.61286530  0.97308748    -0.78490
O933        O  0.33616587  0.69921806  0.52981098    -0.78470
O934        O  0.35295796  0.68828283  0.97306093    -0.78530
O935        O  0.24841322  0.61464083  0.53115095    -0.78490
O936        O  0.28741752  0.66417355  0.56826676    -0.78450
O937        O  0.27940161  0.62064281  0.91913532    -0.78520
Co938      Co  0.29572479  0.60429913  0.53765832     1.51530
Co939      Co  0.33289049  0.64350186  0.95986822     1.51690
Co940      Co  0.29366498  0.60124133  0.96695975     1.51570
Co941      Co  0.32870686  0.65154597  0.54278552     1.51470
O942        O  0.30403806  0.64156130  0.49809845    -1.40410
C943        C  0.27588243  0.64360173  0.59133120     1.11140
C944        C  0.28227585  0.65139405  0.91013513     1.11230
C945        C  0.23287628  0.61727687  0.50195365     1.11160
C946        C  0.35034846  0.70781062  0.00033798     1.11140
O947        O  0.14461895  0.81478634  0.52992198    -0.78480
O948        O  0.24902520  0.89163319  0.96833154    -0.78500
O949        O  0.20922082  0.82757886  0.92942814    -0.78510
O950        O  0.22758988  0.88445740  0.57800299    -0.78450
O951        O  0.21668159  0.88180008  0.91414970    -0.78580
O952        O  0.20544755  0.83658417  0.56235205    -0.78500
O953        O  0.24693791  0.85952708  0.51591394    -0.78480
O954        O  0.17087634  0.79522601  0.98329110    -0.78520
C955        C  0.15059269  0.79139381  0.00851887     1.11210
C956        C  0.26274186  0.87222846  0.99093508     1.11090
C957        C  0.22380667  0.85019254  0.91103927     1.11230
C958        C  0.22621542  0.85258868  0.58198665     1.11110
O959        O  0.14572660  0.86273582  0.57972270    -0.78480
O960        O  0.15869953  0.91844038  0.94239686    -0.78560
O961        O  0.11953801  0.84373528  0.96691043    -0.78490
O962        O  0.22435218  0.93142528  0.51470860    -0.78470
O963        O  0.21912441  0.94720019  0.95502159    -0.78530
O964        O  0.12598148  0.88040974  0.51056202    -0.78490
O965        O  0.16750982  0.90850067  0.55733258    -0.78450
O966        O  0.15537766  0.87145122  0.91249214    -0.78520
Co967      Co  0.16532549  0.85901496  0.53378565     1.51530
Co968      Co  0.20246847  0.90382851  0.96087614     1.51690
Co969      Co  0.16527038  0.83534196  0.95023038     1.51570
Co970      Co  0.20687701  0.88345513  0.53168459     1.51470
O971        O  0.18618330  0.86526594  0.98630074    -1.40410
C972        C  0.14959503  0.89391902  0.58176027     1.11140
C973        C  0.14850865  0.90253551  0.91548073     1.11230
C974        C  0.10857381  0.86682017  0.98690966     1.11160
C975        C  0.22843763  0.95302134  0.98756088     1.11140
O976        O  0.47295854  0.94145308  0.53006810    -0.78480
O977        O  0.37550777  0.85508844  0.97184406    -0.78500
O978        O  0.40954555  0.92105476  0.93074925    -0.78510
O979        O  0.39898162  0.86257634  0.58248395    -0.78450
O980        O  0.40972287  0.86614755  0.91879450    -0.78580
O981        O  0.41736430  0.91222365  0.56363518    -0.78500
O982        O  0.37399171  0.88472927  0.51964935    -0.78480
O983        O  0.44239611  0.95817843  0.98326960    -0.78520
C984        C  0.46270029  0.96456959  0.50801156     1.11210
C985        C  0.35976614  0.87173981  0.49388347     1.11090
C986        C  0.39933773  0.89660827  0.91274937     1.11230
C987        C  0.39893855  0.89458361  0.58465337     1.11110
O988        O  0.47879614  0.88973182  0.58137094    -0.78480
O989        O  0.46856972  0.83729015  0.95524004    -0.78560
O990        O  0.49959272  0.91737385  0.97118410    -0.78490
O991        O  0.40244786  0.81602849  0.52060635    -0.78470
O992        O  0.41125895  0.80230603  0.96215283    -0.78530
O993        O  0.49750165  0.87673073  0.51297559    -0.78490
O994        O  0.45932478  0.84331166  0.55898019    -0.78450
O995        O  0.46755515  0.88365415  0.92036707    -0.78520
Co996      Co  0.45745141  0.89419569  0.53595275     1.51530
Co997      Co  0.42312641  0.84695482  0.96817684     1.51690
Co998      Co  0.45323610  0.91924179  0.95329077     1.51570
Co999      Co  0.41682746  0.86522759  0.53530886     1.51470
O1000       O  0.43470885  0.88746170  0.49016169    -1.40410
C1001       C  0.47772311  0.85796514  0.58224496     1.11140
C1002       C  0.47871842  0.85434638  0.92841185     1.11230
C1003       C  0.51311482  0.89352193  0.48989420     1.11160
C1004       C  0.40077164  0.79497828  0.49385844     1.11140
O1005       O  0.22486636  0.60600735  0.67533205    -0.78480
O1006       O  0.21155016  0.66072618  0.80139618    -0.78500
O1007       O  0.14314303  0.67381555  0.73691600    -0.78510
O1008       O  0.25114094  0.57801164  0.78228232    -0.78450
O1009       O  0.14884976  0.68915171  0.79523375    -0.78580
O1010       O  0.24386559  0.62060700  0.74350920    -0.78500
O1011       O  0.22190006  0.61373845  0.83438558    -0.78480
O1012       O  0.20080806  0.65152078  0.69661578    -0.78520
C1013       C  0.22004133  0.63741345  0.67340549     1.11210
C1014       C  0.22674019  0.64477335  0.82711331     1.11090
C1015       C  0.13903816  0.69533148  0.76254018     1.11230
C1016       C  0.26190043  0.60283656  0.76470700     1.11110
O1017       O  0.22244140  0.55559763  0.72548059    -0.78480
O1018       O  0.12128690  0.63078541  0.78805034    -0.78560
O1019       O  0.14171539  0.63144711  0.67549652    -0.78490
O1020       O  0.16600605  0.57277126  0.82905253    -0.78470
O1021       O  0.16125640  0.62721704  0.84103192    -0.78530
O1022       O  0.16630536  0.58264092  0.69065226    -0.78490
O1023       O  0.19607692  0.53749635  0.77377430    -0.78450
O1024       O  0.12255319  0.60299587  0.73846841    -0.78520
Co1025     Co  0.20479553  0.60208241  0.72036360     1.51530
Co1026     Co  0.16710778  0.64572893  0.79006295     1.51690
Co1027     Co  0.16184493  0.62661974  0.72175294     1.51570
Co1028     Co  0.20705351  0.57639160  0.80308309     1.51470
O1029       O  0.18357914  0.60698576  0.76701759    -1.40410
C1030       C  0.21297976  0.53198860  0.74604863     1.11140
C1031       C  0.10837997  0.61091291  0.76688259     1.11230
C1032       C  0.14674812  0.60048204  0.66942915     1.11160
C1033       C  0.15671080  0.59615107  0.84927808     1.11140
O1034       O  0.41210770  0.58288132  0.68766053    -0.78480
O1035       O  0.43248364  0.56437653  0.82325831    -0.78500
O1036       O  0.48128720  0.56154436  0.71842880    -0.78510
O1037       O  0.36942469  0.64684817  0.77228554    -0.78450
O1038       O  0.43701230  0.54963227  0.74899042    -0.78580
O1039       O  0.37052485  0.60475180  0.73546480    -0.78500
O1040       O  0.40950434  0.61660266  0.81998385    -0.78480
O1041       O  0.45420202  0.59814451  0.65986637    -0.78520
C1042       C  0.42648597  0.58527842  0.65852087     1.11210
C1043       C  0.41308453  0.58690274  0.83567347     1.11090
C1044       C  0.46274860  0.53989755  0.73297030     1.11230
C1045       C  0.35639760  0.62167672  0.75889981     1.11110
O1046       O  0.37894418  0.67350311  0.71140354    -0.78480
O1047       O  0.99345108  0.57761641  0.78187968    -0.78560
O1048       O  0.47262391  0.65957359  0.69384994    -0.78490
O1049       O  0.46021923  0.66859389  0.79635690    -0.78470
O1050       O  0.46692282  0.61767565  0.81675861    -0.78530
O1051       O  0.42677257  0.65333302  0.66379368    -0.78490
O1052       O  0.41524963  0.69503040  0.74694013    -0.78450
O1053       O  0.00406170  0.62268175  0.74860859    -0.78520
Co1054     Co  0.39931486  0.62782822  0.70203567     1.51530
Co1055     Co  0.44482057  0.58825960  0.78035763     1.51690
Co1056     Co  0.47606979  0.61190241  0.70762859     1.51570
Co1057     Co  0.41663430  0.65481948  0.78022894     1.51470
O1058       O  0.43639136  0.62312806  0.74030574    -1.40410
C1059       C  0.38964934  0.69855565  0.72762281     1.11140
C1060       C  0.01368468  0.59864221  0.76947326     1.11230
C1061       C  0.45570769  0.66464453  0.66554702     1.11160
C1062       C  0.47388350  0.64797317  0.81813370     1.11140
O1063       O  0.02551728  0.88528987  0.66961675    -0.78480
O1064       O  0.04086809  0.82964820  0.82314808    -0.78500
O1065       O  0.10623760  0.80995663  0.72707650    -0.78510
O1066       O  0.49821406  0.88441499  0.77972743    -0.78450
O1067       O  0.07506761  0.79424025  0.77242050    -0.78580
O1068       O  0.50384878  0.85607749  0.73109586    -0.78500
O1069       O  0.03448267  0.88364852  0.83557532    -0.78480
O1070       O  0.05251127  0.83801527  0.68636948    -0.78520
C1071       C  0.03268613  0.85465045  0.66414118     1.11210
C1072       C  0.03091222  0.85246356  0.84355401     1.11090
C1073       C  0.09489674  0.78709590  0.74782198     1.11230
C1074       C  0.48735510  0.86373471  0.75808455     1.11110
O1075       O  0.02005930  0.92854274  0.72974511    -0.78480
O1076       O  0.13014751  0.83427778  0.78654051    -0.78560
O1077       O  0.11213428  0.86251678  0.67596373    -0.78490
O1078       O  0.08553658  0.91884320  0.80195481    -0.78470
O1079       O  0.09584051  0.87103966  0.83408560    -0.78530
O1080       O  0.08287096  0.90707949  0.69255630    -0.78490
O1081       O  0.02130438  0.94452140  0.78805546    -0.78450
O1082       O  0.12732059  0.87580398  0.74587252    -0.78520
Co1083     Co  0.04317421  0.88175515  0.71681878     1.51530
Co1084     Co  0.08394399  0.83325961  0.80202739     1.51690
Co1085     Co  0.08927111  0.85769963  0.71940940     1.51570
Co1086     Co  0.04305503  0.90193571  0.78529532     1.51470
O1087       O  0.06392544  0.86388473  0.76361966    -1.40410
C1088       C  0.01230244  0.94986347  0.75488039     1.11140
C1089       C  0.14320595  0.85824427  0.76957221     1.11230
C1090       C  0.10415717  0.89329973  0.67093956     1.11160
C1091       C  0.09913657  0.90264196  0.82875005     1.11140
O1092       O  0.34853991  0.90666845  0.68713370    -0.78480
O1093       O  0.31203841  0.91899851  0.82100367    -0.78500
O1094       O  0.27394290  0.93522585  0.70726607    -0.78510
O1095       O  0.37180713  0.82899730  0.77631318    -0.78450
O1096       O  0.27479127  0.93307789  0.76651178    -0.78580
O1097       O  0.38121258  0.87108234  0.73846636    -0.78500
O1098       O  0.34460522  0.87570131  0.80932830    -0.78480
O1099       O  0.30481443  0.90207556  0.65505795    -0.78520
C1100       C  0.33369129  0.91204354  0.65797100     1.11210
C1101       C  0.33700310  0.90093179  0.82861769     1.11090
C1102       C  0.26576829  0.94690258  0.73702796     1.11230
C1103       C  0.39165533  0.84882136  0.76096191     1.11110
O1104       O  0.35564265  0.80983213  0.71247647    -0.78480
O1105       O  0.26214286  0.87904792  0.78579734    -0.78560
O1106       O  0.27597152  0.84002589  0.68431057    -0.78490
O1107       O  0.31383193  0.81904747  0.82385409    -0.78470
O1108       O  0.28162116  0.86430848  0.81018640    -0.78530
O1109       O  0.32243171  0.84333564  0.65695259    -0.78490
O1110       O  0.31531770  0.79814150  0.74985656    -0.78450
O1111       O  0.24096197  0.87677216  0.72979059    -0.78520
Co1112     Co  0.35047240  0.85888150  0.70035187     1.51530
Co1113     Co  0.30773097  0.89707460  0.77603697     1.51690
Co1114     Co  0.27608938  0.88694563  0.69680849     1.51570
Co1115     Co  0.32307233  0.84005003  0.77707926     1.51470
O1116       O  0.31279896  0.87003586  0.73239354    -1.40410
C1117       C  0.33878244  0.78861799  0.72968956     1.11140
C1118       C  0.23808454  0.87492343  0.76356155     1.11230
C1119       C  0.29267595  0.83449676  0.65718921     1.11160
C1120       C  0.28951949  0.83840497  0.83141608     1.11140
C1121       C  0.42638738  0.84617182  0.76636938    -0.11620
C1122       C  0.45520809  0.85101300  0.76361185    -0.13170
C1123       C  0.20599862  0.86827655  0.77596715    -0.11620
C1124       C  0.17710233  0.86403642  0.77588044    -0.13090
C1125       C  0.47588508  0.50550820  0.73813034    -0.11620
C1126       C  0.99191971  0.47967591  0.74512826    -0.13170
C1127       C  0.36924039  0.72910460  0.72841916    -0.11620
C1128       C  0.35160316  0.75420310  0.72976200    -0.13170
C1129       C  0.24436843  0.97539026  0.73775535    -0.11620
C1130       C  0.22688227  0.99961675  0.74090015    -0.13170
C1131       C  0.10865512  0.75360792  0.74787126    -0.11620
C1132       C  0.12228374  0.72667882  0.75358447    -0.13170
C1133       C  0.29527166  0.60981949  0.76762994    -0.11620
C1134       C  0.32366732  0.61500287  0.76658269    -0.13170
C1135       C  0.04776822  0.59528414  0.77656623    -0.11620
C1136       C  0.07650450  0.59939618  0.77427319    -0.13170
C1137       C  0.01640786  0.84276178  0.87666474    -0.11620
C1138       C  0.50135116  0.84111119  0.90402457    -0.13170
C1139       C  0.01629897  0.83936194  0.63455674    -0.11620
C1140       C  0.49833797  0.84013289  0.60841850    -0.13170
C1141       C  0.37606487  0.90370582  0.88436757    -0.11620
C1142       C  0.35713550  0.90660256  0.85935146    -0.13170
C1143       C  0.35339570  0.91724571  0.62696504    -0.11620
C1144       C  0.37491264  0.91073015  0.60636168    -0.13170
C1145       C  0.24877191  0.83965916  0.88575481    -0.11620
C1146       C  0.26907246  0.83393150  0.86283316    -0.13170
C1147       C  0.27396041  0.82929479  0.62469280    -0.11620
C1148       C  0.25142136  0.83531353  0.60374117    -0.13170
C1149       C  0.11643934  0.91917399  0.85688285    -0.11620
C1150       C  0.13095489  0.91886506  0.88559217    -0.13170
C1151       C  0.11900761  0.91051672  0.64017491    -0.11620
C1152       C  0.13352515  0.91065423  0.61151986    -0.13170
C1153       C  0.32560331  0.87193528  0.49154713    -0.11620
C1154       C  0.29684803  0.86915726  0.99064781    -0.13170
C1155       C  0.07504548  0.87693962  0.48413348    -0.11620
C1156       C  0.04677747  0.88533771  0.48525832    -0.13170
C1157       C  0.24814301  0.66141783  0.85138169    -0.11620
C1158       C  0.26519388  0.66370943  0.87802446    -0.13170
C1159       C  0.25529009  0.65482191  0.62004048    -0.11620
C1160       C  0.23759010  0.65496441  0.64585821    -0.13170
C1161       C  0.37673238  0.58641856  0.89288224    -0.11620
C1162       C  0.39475205  0.58106776  0.86801375    -0.13170
C1163       C  0.40656688  0.58709745  0.62572090    -0.11620
C1164       C  0.38473811  0.59508619  0.60427998    -0.13170
C1165       C  0.26152152  0.50874597  0.49593911    -0.11620
C1166       C  0.24624968  0.98319279  0.99372739    -0.13170
C1167       C  0.38339109  0.76417569  0.49859924    -0.11620
C1168       C  0.36737459  0.73904305  0.49936311    -0.13170
C1169       C  0.01097601  0.65602009  0.87506227    -0.11620
C1170       C  0.49526518  0.65729077  0.84705448    -0.13170
C1171       C  0.47384464  0.67040594  0.63276899    -0.11620
C1172       C  0.99376331  0.66417173  0.60973606    -0.13170
C1173       C  0.14110584  0.58722226  0.88229179    -0.11620
C1174       C  0.12502491  0.58619458  0.90913294    -0.13170
C1175       C  0.11190218  0.58777532  0.61345997    -0.11620
C1176       C  0.12922179  0.58635395  0.64003928    -0.13170
C1177       C  0.47932617  0.49605638  0.50660007    -0.11620
C1178       C  0.99640907  0.52018424  0.50231301    -0.13170
C1179       C  0.44700010  0.63184678  0.99033881    -0.11620
C1180       C  0.41861343  0.62949220  0.99545937    -0.13170
C1181       C  0.17002790  0.63214434  0.49972665    -0.11620
C1182       C  0.19875761  0.62535230  0.50126842    -0.13170
C1183       C  0.10936511  0.74153102  0.01065679    -0.11620
C1184       C  0.12974468  0.76290780  0.00981388    -0.13170
O1185       O  0.59543171  0.18948604  0.03441637    -0.78480
O1186       O  0.99600317  0.11144657  0.47017147    -0.78500
O1187       O  0.53809025  0.17238618  0.42783581    -0.78510
O1188       O  0.51523414  0.11617204  0.08216395    -0.78450
O1189       O  0.53463906  0.11729661  0.41763509    -0.78580
O1190       O  0.53645246  0.16474764  0.06561447    -0.78500
O1191       O  0.99583499  0.14164663  0.01785229    -0.78480
O1192       O  0.56972921  0.20791688  0.48459057    -0.78520
C1193       C  0.58892336  0.21274143  0.51102389     1.11210
C1194       C  0.98119019  0.12969089  0.49176649     1.11090
C1195       C  0.52844049  0.14831630  0.40857504     1.11230
C1196       C  0.51663571  0.14783508  0.08588676     1.11110
O1197       O  0.59570105  0.13833464  0.08617122    -0.78480
O1198       O  0.58862963  0.08475625  0.45806789    -0.78560
O1199       O  0.62477910  0.16358748  0.47773531    -0.78490
O1200       O  0.51847150  0.07115199  0.02131394    -0.78470
O1201       O  0.52755414  0.05471341  0.46394218    -0.78530
O1202       O  0.61746298  0.12375315  0.01937021    -0.78490
O1203       O  0.57548025  0.09321960  0.06192741    -0.78450
O1204       O  0.59425481  0.13133965  0.42436446    -0.78520
Co1205     Co  0.57692208  0.14380659  0.03943427     1.51530
Co1206     Co  0.54314617  0.09869609  0.46861135     1.51690
Co1207     Co  0.57988754  0.16806238  0.45560567     1.51570
Co1208     Co  0.53589593  0.11855850  0.03612731     1.51470
O1209       O  0.55693908  0.13826902  0.99137577    -1.40410
C1210       C  0.59327080  0.10670580  0.08652446     1.11140
C1211       C  0.60216193  0.10107063  0.43255526     1.11230
C1212       C  0.63586551  0.13999728  0.99863902     1.11160
C1213       C  0.51578516  0.04942910  0.99559667     1.11140
O1214       O  0.78419517  0.05550763  0.02478976    -0.78480
O1215       O  0.86556714  0.11429773  0.48675981    -0.78500
O1216       O  0.83683210  0.08749010  0.43975048    -0.78510
O1217       O  0.85067564  0.14195787  0.08797504    -0.78450
O1218       O  0.85801021  0.13562950  0.41861405    -0.78580
O1219       O  0.84280495  0.09416555  0.05804716    -0.78500
O1220       O  0.87467639  0.14913676  0.02663571    -0.78480
O1221       O  0.77953641  0.05580582  0.46339538    -0.78520
C1222       C  0.77642423  0.04123935  0.99462205     1.11210
C1223       C  0.88542146  0.12956191  0.00439739     1.11090
C1224       C  0.85587107  0.10376300  0.41756063     1.11230
C1225       C  0.85768833  0.11058658  0.08343534     1.11110
O1226       O  0.78176216  0.11247185  0.08753714    -0.78480
O1227       O  0.80061313  0.16952454  0.42878661    -0.78560
O1228       O  0.74730479  0.11286368  0.47308782    -0.78490
O1229       O  0.83616590  0.19921945  0.02981115    -0.78470
O1230       O  0.85295820  0.18828149  0.47306106    -0.78530
O1231       O  0.74841323  0.11464072  0.03115095    -0.78490
O1232       O  0.78741756  0.16417507  0.06826681    -0.78450
O1233       O  0.77940129  0.12064193  0.41913540    -0.78520
Co1234     Co  0.79572495  0.10429953  0.03765805     1.51530
Co1235     Co  0.83289070  0.14350056  0.45986803     1.51690
Co1236     Co  0.79366488  0.10124008  0.46695964     1.51570
Co1237     Co  0.82870688  0.15154739  0.04278576     1.51470
O1238       O  0.80403798  0.14156252  0.99809890    -1.40410
C1239       C  0.77588238  0.14360311  0.09133096     1.11140
C1240       C  0.78227584  0.15139313  0.41013518     1.11230
C1241       C  0.73287632  0.11727755  0.00195367     1.11160
C1242       C  0.85034848  0.20780918  0.50033819     1.11140
O1243       O  0.64461900  0.31478708  0.02992139    -0.78480
O1244       O  0.74902474  0.39163243  0.46833183    -0.78500
O1245       O  0.70922021  0.32757857  0.42942799    -0.78510
O1246       O  0.72759022  0.38445781  0.07800238    -0.78450
O1247       O  0.71668092  0.38179983  0.41414983    -0.78580
O1248       O  0.70544768  0.33658470  0.06235139    -0.78500
O1249       O  0.74693817  0.35952767  0.01591326    -0.78480
O1250       O  0.67087584  0.29522554  0.48329110    -0.78520
C1251       C  0.65059225  0.29139330  0.50851895     1.11210
C1252       C  0.76274135  0.37222768  0.49093541     1.11090
C1253       C  0.72380602  0.35019234  0.41103919     1.11230
C1254       C  0.72621561  0.35258910  0.08198601     1.11110
O1255       O  0.64572678  0.36273636  0.07972217    -0.78480
O1256       O  0.65869904  0.41844005  0.44239749    -0.78560
O1257       O  0.61953751  0.34373470  0.46691071    -0.78490
O1258       O  0.72435241  0.43142586  0.01470804    -0.78470
O1259       O  0.71912403  0.44719960  0.45502193    -0.78530
O1260       O  0.62598172  0.38041054  0.01056149    -0.78490
O1261       O  0.66751014  0.40850121  0.05733234    -0.78450
O1262       O  0.65537693  0.37145106  0.41249250    -0.78520
Co1263     Co  0.66532567  0.35901561  0.03378508     1.51530
Co1264     Co  0.70246802  0.40382798  0.46087651     1.51690
Co1265     Co  0.66526980  0.33534157  0.45023049     1.51570
Co1266     Co  0.70687727  0.38345569  0.03168404     1.51470
O1267       O  0.68618283  0.36526537  0.48630097    -1.40410
C1268       C  0.64959532  0.39391950  0.08176000     1.11140
C1269       C  0.64850797  0.40253535  0.41548133     1.11230
C1270       C  0.60857333  0.36681955  0.48690998     1.11160
C1271       C  0.72843730  0.45302069  0.48756121     1.11140
O1272       O  0.97295850  0.44145415  0.03006795    -0.78480
O1273       O  0.87550740  0.35508743  0.47184462    -0.78500
O1274       O  0.90954568  0.42105339  0.43074937    -0.78510
O1275       O  0.89898142  0.36257745  0.08248348    -0.78450
O1276       O  0.90972283  0.36614609  0.41879510    -0.78580
O1277       O  0.91736424  0.41222475  0.06363489    -0.78500
O1278       O  0.87399185  0.38473055  0.01964873    -0.78480
O1279       O  0.94239616  0.45817748  0.48326945    -0.78520
C1280       C  0.96270019  0.46457060  0.00801138     1.11210
C1281       C  0.85976636  0.37174099  0.99388286     1.11090
C1282       C  0.89933784  0.39660683  0.41274966     1.11230
C1283       C  0.89893840  0.39458470  0.08465298     1.11110
O1284       O  0.97879604  0.38973303  0.08137090    -0.78480
O1285       O  0.96856953  0.33728873  0.45524129    -0.78560
O1286       O  0.99959252  0.41737257  0.47118478    -0.78490
O1287       O  0.90244791  0.31602971  0.02060604    -0.78470
O1288       O  0.91125858  0.30230490  0.46215388    -0.78530
O1289       O  0.99750187  0.37673183  0.01297564    -0.78490
O1290       O  0.95932471  0.34331284  0.05898016    -0.78450
O1291       O  0.96755519  0.38365241  0.42036790    -0.78520
Co1292     Co  0.95745148  0.39419677  0.03595261     1.51530
Co1293     Co  0.92312607  0.34695368  0.46817768     1.51690
Co1294     Co  0.95323608  0.41924043  0.45329115     1.51570
Co1295     Co  0.91682750  0.36522880  0.03530855     1.51470
O1296       O  0.93470912  0.38746269  0.99016143    -1.40410
C1297       C  0.97772299  0.35796636  0.08224497     1.11140
C1298       C  0.97871856  0.35434478  0.42841313     1.11230
C1299       C  0.01311506  0.39352299  0.98989422     1.11160
C1300       C  0.90077176  0.29497942  0.99385821     1.11140
O1301       O  0.72486635  0.10600806  0.17533174    -0.78480
O1302       O  0.71155006  0.16072642  0.30139627    -0.78500
O1303       O  0.64314296  0.17381600  0.23691587    -0.78510
O1304       O  0.75114076  0.07801194  0.28228204    -0.78450
O1305       O  0.64884966  0.18915205  0.29523367    -0.78580
O1306       O  0.74386554  0.12060741  0.24350900    -0.78500
O1307       O  0.72189980  0.11373849  0.33438540    -0.78480
O1308       O  0.70080794  0.15152138  0.19661560    -0.78520
C1309       C  0.72004126  0.13741416  0.17340528     1.11210
C1310       C  0.72674004  0.14477339  0.32711331     1.11090
C1311       C  0.63903810  0.19533188  0.26254010     1.11230
C1312       C  0.76190032  0.10283685  0.26470675     1.11110
O1313       O  0.72244140  0.05559810  0.22548012    -0.78480
O1314       O  0.62128678  0.13078577  0.28805006    -0.78560
O1315       O  0.64171528  0.13144769  0.17549628    -0.78490
O1316       O  0.66600573  0.07277147  0.32905198    -0.78470
O1317       O  0.66125619  0.12721718  0.34103169    -0.78530
O1318       O  0.66630535  0.08264151  0.19065187    -0.78490
O1319       O  0.69607673  0.03749671  0.27377364    -0.78450
O1320       O  0.62255314  0.10299627  0.23846812    -0.78520
Co1321     Co  0.70479550  0.10208294  0.22036328     1.51530
Co1322     Co  0.66710767  0.14572927  0.29006281     1.51690
Co1323     Co  0.66184484  0.12662023  0.22175269     1.51570
Co1324     Co  0.70705327  0.07639183  0.30308267     1.51470
O1325       O  0.68357907  0.10698619  0.26701727    -1.40410
C1326       C  0.71297977  0.03198902  0.24604811     1.11140
C1327       C  0.60837991  0.11091322  0.26688233     1.11230
C1328       C  0.64674808  0.10048264  0.16942882     1.11160
C1329       C  0.65671059  0.09615118  0.34927771     1.11140
O1330       O  0.91210787  0.08288140  0.18766028    -0.78480
O1331       O  0.93248370  0.06437584  0.32325792    -0.78500
O1332       O  0.98128730  0.06154426  0.21842858    -0.78510
O1333       O  0.86942473  0.14684782  0.27228559    -0.78450
O1334       O  0.93701232  0.04963212  0.24898997    -0.78580
O1335       O  0.87052491  0.10475167  0.23546457    -0.78500
O1336       O  0.90950432  0.11660194  0.31998372    -0.78480
O1337       O  0.95420220  0.09814469  0.15986624    -0.78520
C1338       C  0.92648614  0.08527867  0.15852062     1.11210
C1339       C  0.91308450  0.08690193  0.33567314     1.11090
C1340       C  0.96274867  0.03989742  0.23296997     1.11230
C1341       C  0.85639763  0.12167649  0.25889964     1.11110
O1342       O  0.87894430  0.17350306  0.21140370    -0.78480
O1343       O  0.49345116  0.07761608  0.28187941    -0.78560
O1344       O  0.97262410  0.15957359  0.19385014    -0.78490
O1345       O  0.96021923  0.16859338  0.29635726    -0.78470
O1346       O  0.96692281  0.11767505  0.31675868    -0.78530
O1347       O  0.92677277  0.15333321  0.16379382    -0.78490
O1348       O  0.91524957  0.19503024  0.24694063    -0.78450
O1349       O  0.50406176  0.12268152  0.24860850    -0.78520
Co1350     Co  0.89931499  0.12782823  0.20203562     1.51530
Co1351     Co  0.94482062  0.08825923  0.28035745     1.51690
Co1352     Co  0.97606991  0.11190237  0.20762857     1.51570
Co1353     Co  0.91663431  0.15481907  0.28022913     1.51470
O1354       O  0.93639144  0.12312789  0.24030573    -1.40410
C1355       C  0.88964935  0.19855553  0.22762319     1.11140
C1356       C  0.51368474  0.09864195  0.26947310     1.11230
C1357       C  0.95570789  0.16464469  0.16554725     1.11160
C1358       C  0.97388348  0.14797255  0.31813396     1.11140
O1359       O  0.52551767  0.38529061  0.16961665    -0.78480
O1360       O  0.54086827  0.32964808  0.32314852    -0.78500
O1361       O  0.60623760  0.30995714  0.22707653    -0.78510
O1362       O  0.99821376  0.38441316  0.27972839    -0.78450
O1363       O  0.57506776  0.29424061  0.27242060    -0.78580
O1364       O  0.00384883  0.35607784  0.23109530    -0.78500
O1365       O  0.53448225  0.38364829  0.33557584    -0.78480
O1366       O  0.55251125  0.33801579  0.18636943    -0.78520
C1367       C  0.53268632  0.35465116  0.16414105     1.11210
C1368       C  0.53091223  0.35246327  0.34355456     1.11090
C1369       C  0.59489682  0.28709635  0.24782200     1.11230
C1370       C  0.98735504  0.36373376  0.25808438     1.11110
O1371       O  0.52005928  0.42854300  0.22974528    -0.78480
O1372       O  0.63014754  0.33427837  0.28654053    -0.78560
O1373       O  0.61213428  0.36251723  0.17596381    -0.78490
O1374       O  0.58553573  0.41884365  0.30195556    -0.78470
O1375       O  0.59584038  0.37103995  0.33408584    -0.78530
O1376       O  0.58287126  0.40708005  0.19255645    -0.78490
O1377       O  0.52130332  0.44452112  0.28805585    -0.78450
O1378       O  0.62732042  0.37580460  0.24587260    -0.78520
Co1379     Co  0.54317438  0.38175563  0.21681878     1.51530
Co1380     Co  0.58394406  0.33325992  0.30202754     1.51690
Co1381     Co  0.58927102  0.35770011  0.21940947     1.51570
Co1382     Co  0.54305445  0.40193565  0.28529581     1.51470
O1383       O  0.56392533  0.36388503  0.26361985    -1.40410
C1384       C  0.51230190  0.44986344  0.25488064     1.11140
C1385       C  0.64320587  0.35824493  0.26957224     1.11230
C1386       C  0.60415738  0.39330022  0.17093964     1.11160
C1387       C  0.59913597  0.40264235  0.32875062     1.11140
O1388       O  0.84854020  0.40666817  0.18713351    -0.78480
O1389       O  0.81203891  0.41899817  0.32100374    -0.78500
O1390       O  0.77394334  0.43522603  0.20726610    -0.78510
O1391       O  0.87180698  0.32899662  0.27631288    -0.78450
O1392       O  0.77479177  0.43307812  0.26651182    -0.78580
O1393       O  0.88121257  0.37108166  0.23846612    -0.78500
O1394       O  0.84460545  0.37570085  0.30932801    -0.78480
O1395       O  0.80481455  0.40207572  0.15505790    -0.78520
C1396       C  0.83369143  0.41204363  0.15797095     1.11210
C1397       C  0.83700347  0.40093120  0.32861764     1.11090
C1398       C  0.76576880  0.44690282  0.23702799     1.11230
C1399       C  0.89165528  0.34882044  0.26096142     1.11110
O1400       O  0.85564216  0.30983176  0.21247611    -0.78480
O1401       O  0.76214286  0.37904826  0.28579724    -0.78560
O1402       O  0.77597123  0.34002617  0.18431021    -0.78490
O1403       O  0.81383149  0.31904741  0.32385399    -0.78470
O1404       O  0.78162105  0.36430865  0.31018632    -0.78530
O1405       O  0.82243149  0.34333568  0.15695232    -0.78490
O1406       O  0.81531733  0.29814129  0.24985643    -0.78450
O1407       O  0.74096198  0.37677255  0.22979048    -0.78520
Co1408     Co  0.85047227  0.35888119  0.20035163     1.51530
Co1409     Co  0.80773117  0.39707449  0.27603692     1.51690
Co1410     Co  0.77608944  0.38694585  0.19680838     1.51570
Co1411     Co  0.82307223  0.34004979  0.27707908     1.51470
O1412       O  0.81279893  0.37003575  0.23239340    -1.40410
C1413       C  0.83878202  0.28861769  0.22968940     1.11140
C1414       C  0.73808452  0.37492392  0.26356143     1.11230
C1415       C  0.79267570  0.33449695  0.15718890     1.11160
C1416       C  0.78951915  0.33840505  0.33141598     1.11140
C1417       C  0.92638738  0.34617044  0.26636845    -0.11620
C1418       C  0.95520810  0.35101159  0.26361096    -0.13170
C1419       C  0.70599855  0.36827725  0.27596702    -0.11620
C1420       C  0.67710224  0.36403717  0.27588037    -0.13090
C1421       C  0.97588517  0.00550809  0.23813017    -0.11620
C1422       C  0.49191971  0.97967572  0.24512834    -0.13170
C1423       C  0.86924031  0.22910444  0.22841952    -0.11620
C1424       C  0.85160291  0.25420284  0.22976216    -0.13170
C1425       C  0.74436900  0.47539054  0.23775529    -0.11620
C1426       C  0.72688272  0.49961700  0.24089979    -0.13170
C1427       C  0.60865521  0.25360839  0.24787117    -0.11620
C1428       C  0.62228376  0.22667926  0.25358440    -0.13170
C1429       C  0.79527161  0.10981955  0.26762961    -0.11620
C1430       C  0.82366730  0.11500271  0.26658236    -0.13170
C1431       C  0.54776829  0.09528398  0.27656612    -0.11620
C1432       C  0.57650453  0.09939628  0.27427301    -0.13170
C1433       C  0.51640807  0.34276126  0.37666540    -0.11620
C1434       C  0.00135192  0.34110960  0.40402639    -0.13170
C1435       C  0.51629908  0.33936282  0.13455655    -0.11620
C1436       C  0.99833781  0.34013412  0.10841856    -0.13170
C1437       C  0.87606515  0.40370436  0.38436769    -0.11620
C1438       C  0.85713587  0.40660149  0.35935153    -0.13170
C1439       C  0.85339567  0.41724640  0.12696496    -0.11620
C1440       C  0.87491254  0.41073118  0.10636139    -0.13170
C1441       C  0.74877130  0.33965913  0.38575463    -0.11620
C1442       C  0.76907194  0.33393162  0.36283298    -0.13170
C1443       C  0.77396025  0.32929498  0.12469244    -0.11620
C1444       C  0.75142136  0.33531382  0.10374064    -0.13170
C1445       C  0.61643855  0.41917433  0.35688362    -0.11620
C1446       C  0.63095410  0.41886514  0.38559296    -0.13170
C1447       C  0.61900797  0.41051708  0.14017490    -0.11620
C1448       C  0.63352552  0.41065456  0.11151981    -0.13170
C1449       C  0.82560354  0.37193634  0.99154647    -0.11620
C1450       C  0.79684752  0.36915634  0.49064816    -0.13170
C1451       C  0.57504569  0.37694062  0.98413299    -0.11620
C1452       C  0.54677771  0.38533881  0.98525801    -0.13170
C1453       C  0.74814295  0.16141759  0.35138181    -0.11620
C1454       C  0.76519387  0.16370877  0.37802461    -0.13170
C1455       C  0.75528996  0.15482303  0.12004029    -0.11620
C1456       C  0.73758998  0.15496526  0.14585804    -0.13170
C1457       C  0.87673223  0.08641739  0.39288181    -0.11620
C1458       C  0.89475193  0.08106671  0.36801331    -0.13170
C1459       C  0.90656702  0.08709803  0.12572068    -0.11620
C1460       C  0.88473825  0.09508698  0.10427984    -0.13170
C1461       C  0.76152154  0.00874672  0.99593907    -0.11620
C1462       C  0.74624945  0.48319206  0.49372771    -0.13170
C1463       C  0.88339109  0.26417694  0.99859905    -0.11620
C1464       C  0.86737448  0.23904438  0.99936304    -0.13170
C1465       C  0.51097604  0.15601924  0.37506239    -0.11620
C1466       C  0.99526517  0.15728998  0.34705480    -0.13170
C1467       C  0.97384486  0.17040631  0.13276926    -0.11620
C1468       C  0.49376351  0.16417221  0.10973602    -0.13170
C1469       C  0.64110582  0.08722221  0.38229150    -0.11620
C1470       C  0.62502507  0.08619434  0.40913279    -0.13170
C1471       C  0.61190222  0.08777588  0.11345957    -0.11620
C1472       C  0.62922178  0.08635456  0.14003891    -0.13170
C1473       C  0.97932628  0.99605719  0.00660006    -0.11620
C1474       C  0.49640899  0.02018516  0.00231276    -0.13170
C1475       C  0.94700015  0.13184521  0.49033877    -0.11620
C1476       C  0.91861348  0.12949048  0.49545924    -0.13170
C1477       C  0.67002793  0.13214490  0.99972658    -0.11620
C1478       C  0.69875765  0.12535290  0.00126852    -0.13170
C1479       C  0.60936465  0.24153053  0.51065685    -0.11620
C1480       C  0.62974422  0.26290730  0.50981392    -0.13170
O1481       O  0.59543149  0.18948547  0.53441663    -0.78480
O1482       O  0.99600312  0.11144750  0.97017146    -0.78500
O1483       O  0.53809050  0.17238685  0.92783552    -0.78510
O1484       O  0.51523387  0.11617145  0.58216405    -0.78450
O1485       O  0.53463906  0.11729729  0.91763491    -0.78580
O1486       O  0.53645224  0.16474702  0.56561451    -0.78500
O1487       O  0.99583483  0.14164575  0.51785226    -0.78480
O1488       O  0.56972956  0.20791746  0.98459023    -0.78520
C1489       C  0.58892366  0.21274199  0.01102360     1.11210
C1490       C  0.98119026  0.12969189  0.99176651     1.11090
C1491       C  0.52844061  0.14831699  0.90857480     1.11230
C1492       C  0.51663544  0.14783450  0.58588678     1.11110
O1493       O  0.59570083  0.13833411  0.58617148    -0.78480
O1494       O  0.58862945  0.08475674  0.95806784    -0.78560
O1495       O  0.62477931  0.16358790  0.97773506    -0.78490
O1496       O  0.51847147  0.07115117  0.52131411    -0.78470
O1497       O  0.52755388  0.05471425  0.96394195    -0.78530
O1498       O  0.61746291  0.12375267  0.51937047    -0.78490
O1499       O  0.57548010  0.09321902  0.56192770    -0.78450
O1500       O  0.59425491  0.13134001  0.92436429    -0.78520
Co1501     Co  0.57692194  0.14380600  0.53943447     1.51530
Co1502     Co  0.54314605  0.09869684  0.96861121     1.51690
Co1503     Co  0.57988777  0.16806289  0.95560540     1.51570
Co1504     Co  0.53589576  0.11855779  0.53612746     1.51470
O1505       O  0.55693900  0.13826833  0.49137597    -1.40410
C1506       C  0.59327062  0.10670527  0.58652474     1.11140
C1507       C  0.60216187  0.10107097  0.93255521     1.11230
C1508       C  0.63586537  0.13999683  0.49863920     1.11160
C1509       C  0.51578529  0.04942824  0.49559684     1.11140
O1510       O  0.78419474  0.05550737  0.52478921    -0.78480
O1511       O  0.86556720  0.11429922  0.98676007    -0.78500
O1512       O  0.83683228  0.08749113  0.93975104    -0.78510
O1513       O  0.85067553  0.14195707  0.58797494    -0.78450
O1514       O  0.85800998  0.13563058  0.91861421    -0.78580
O1515       O  0.84280462  0.09416468  0.55804736    -0.78500
O1516       O  0.87467628  0.14913524  0.52663549    -0.78480
O1517       O  0.77953647  0.05580685  0.96339597    -0.78520
C1518       C  0.77642402  0.04123870  0.49462163     1.11210
C1519       C  0.88542139  0.12956036  0.50439723     1.11090
C1520       C  0.85587108  0.10376404  0.91756102     1.11230
C1521       C  0.85768811  0.11058574  0.58343545     1.11110
O1522       O  0.78176193  0.11247028  0.58753759    -0.78480
O1523       O  0.80061281  0.16952556  0.92878681    -0.78560
O1524       O  0.74730501  0.11286519  0.97308778    -0.78490
O1525       O  0.83616566  0.19921796  0.52981115    -0.78470
O1526       O  0.85295805  0.18828277  0.97306097    -0.78530
O1527       O  0.74841310  0.11464098  0.53115092    -0.78490
O1528       O  0.78741742  0.16417340  0.56826676    -0.78450
O1529       O  0.77940155  0.12064271  0.91913555    -0.78520
Co1530     Co  0.79572466  0.10429920  0.53765835     1.51530
Co1531     Co  0.83289055  0.14350178  0.95986828     1.51690
Co1532     Co  0.79366502  0.10124126  0.96695995     1.51570
Co1533     Co  0.82870677  0.15154585  0.54278555     1.51470
O1534       O  0.80403798  0.14156129  0.49809842    -1.40410
C1535       C  0.77588233  0.14360162  0.59133124     1.11140
C1536       C  0.78227582  0.15139393  0.91013527     1.11230
C1537       C  0.73287617  0.11727696  0.50195360     1.11160
C1538       C  0.85034857  0.20781054  0.00033804     1.11140
O1539       O  0.64461887  0.31478631  0.52992201    -0.78480
O1540       O  0.74902523  0.39163295  0.96833112    -0.78500
O1541       O  0.70922064  0.32757870  0.92942780    -0.78510
O1542       O  0.72758965  0.38445736  0.57800315    -0.78450
O1543       O  0.71668159  0.38179986  0.91414929    -0.78580
O1544       O  0.70544742  0.33658413  0.56235209    -0.78500
O1545       O  0.74693776  0.35952720  0.51591404    -0.78480
O1546       O  0.67087605  0.29522606  0.98329072    -0.78520
C1547       C  0.65059241  0.29139395  0.00851851     1.11210
C1548       C  0.76274180  0.37222821  0.99093471     1.11090
C1549       C  0.72380660  0.35019230  0.91103895     1.11230
C1550       C  0.72621524  0.35258864  0.58198675     1.11110
O1551       O  0.64572649  0.36273577  0.57972284    -0.78480
O1552       O  0.65869966  0.41844041  0.94239642    -0.78560
O1553       O  0.61953785  0.34373548  0.96690996    -0.78490
O1554       O  0.72435199  0.43142531  0.51470885    -0.78470
O1555       O  0.71912462  0.44720000  0.95502103    -0.78530
O1556       O  0.62598135  0.38040975  0.51056222    -0.78490
O1557       O  0.66750961  0.40850065  0.55733268    -0.78450
O1558       O  0.65537764  0.37145127  0.91249170    -0.78520
Co1559     Co  0.66532536  0.35901495  0.53378576     1.51530
Co1560     Co  0.70246854  0.40382841  0.96087569     1.51690
Co1561     Co  0.66527021  0.33534199  0.95022997     1.51570
Co1562     Co  0.70687681  0.38345516  0.53168472     1.51470
O1563       O  0.68618320  0.36526594  0.98630033    -1.40410
C1564       C  0.64959485  0.39391898  0.58176038     1.11140
C1565       C  0.64850873  0.40253558  0.91548029     1.11230
C1566       C  0.60857370  0.36682042  0.98690916     1.11160
C1567       C  0.72843777  0.45302119  0.98756034     1.11140
O1568       O  0.97295824  0.44145320  0.53006841    -0.78480
O1569       O  0.87550778  0.35508835  0.97184401    -0.78500
O1570       O  0.90954560  0.42105459  0.93074910    -0.78510
O1571       O  0.89898111  0.36257678  0.58248425    -0.78450
O1572       O  0.90972297  0.36614735  0.91879452    -0.78580
O1573       O  0.91736385  0.41222401  0.56363533    -0.78500
O1574       O  0.87399142  0.38472948  0.51964947    -0.78480
O1575       O  0.94239604  0.45817846  0.98326932    -0.78520
C1576       C  0.96270021  0.46456962  0.50801162     1.11210
C1577       C  0.85976596  0.37174001  0.49388352     1.11090
C1578       C  0.89933780  0.39660805  0.91274931     1.11230
C1579       C  0.89893806  0.39458406  0.58465355     1.11110
O1580       O  0.97879555  0.38973206  0.58137156    -0.78480
O1581       O  0.96856979  0.33729008  0.95524033    -0.78560
O1582       O  0.99959269  0.41737387  0.97118410    -0.78490
O1583       O  0.90244739  0.31602867  0.52060688    -0.78470
O1584       O  0.91125902  0.30230596  0.96215302    -0.78530
O1585       O  0.99750139  0.37673067  0.51297640    -0.78490
O1586       O  0.95932431  0.34331185  0.55898075    -0.78450
O1587       O  0.96755522  0.38365395  0.92036717    -0.78520
Co1588     Co  0.95745105  0.39419584  0.53595321     1.51530
Co1589     Co  0.92312644  0.34695476  0.96817694     1.51690
Co1590     Co  0.95323611  0.41924171  0.95329068     1.51570
Co1591     Co  0.91682710  0.36522779  0.53530922     1.51470
O1592       O  0.93470872  0.38746171  0.49016203    -1.40410
C1593       C  0.97772258  0.35796537  0.58224555     1.11140
C1594       C  0.97871855  0.35434624  0.92841212     1.11230
C1595       C  0.01311474  0.39352176  0.48989508     1.11160
C1596       C  0.90077126  0.29497838  0.49385904     1.11140
O1597       O  0.72486628  0.10600741  0.67533194    -0.78480
O1598       O  0.71155020  0.16072608  0.80139621    -0.78500
O1599       O  0.64314299  0.17381556  0.73691602    -0.78510
O1600       O  0.75114097  0.07801162  0.78228216    -0.78450
O1601       O  0.64884980  0.18915164  0.79523380    -0.78580
O1602       O  0.74386557  0.12060701  0.74350909    -0.78500
O1603       O  0.72190011  0.11373831  0.83438552    -0.78480
O1604       O  0.70080801  0.15152082  0.69661577    -0.78520
C1605       C  0.72004127  0.13741351  0.67340545     1.11210
C1606       C  0.72674023  0.14477322  0.82711332     1.11090
C1607       C  0.63903814  0.19533146  0.76254025     1.11230
C1608       C  0.76190042  0.10283659  0.76470689     1.11110
O1609       O  0.72244142  0.05559765  0.72548040    -0.78480
O1610       O  0.62128693  0.13078535  0.78805031    -0.78560
O1611       O  0.64171534  0.13144716  0.67549648    -0.78490
O1612       O  0.66600611  0.07277113  0.82905243    -0.78470
O1613       O  0.66125645  0.12721689  0.84103186    -0.78530
O1614       O  0.66630531  0.08264095  0.69065215    -0.78490
O1615       O  0.69607698  0.03749629  0.77377410    -0.78450
O1616       O  0.62255318  0.10299586  0.73846835    -0.78520
Co1617     Co  0.70479550  0.10208242  0.72036349     1.51530
Co1618     Co  0.66710781  0.14572886  0.79006294     1.51690
Co1619     Co  0.66184490  0.12661975  0.72175290     1.51570
Co1620     Co  0.70705355  0.07639151  0.80308295     1.51470
O1621       O  0.68357915  0.10698571  0.76701751    -1.40410
C1622       C  0.71297983  0.03198859  0.74604843     1.11140
C1623       C  0.60837997  0.11091287  0.76688255     1.11230
C1624       C  0.64674807  0.10048210  0.66942906     1.11160
C1625       C  0.65671087  0.09615092  0.84927800     1.11140
O1626       O  0.91210760  0.08288126  0.68766064    -0.78480
O1627       O  0.93248359  0.06437640  0.82325834    -0.78500
O1628       O  0.98128724  0.06154429  0.71842884    -0.78510
O1629       O  0.86942473  0.14684821  0.77228569    -0.78450
O1630       O  0.93701235  0.04963216  0.74899043    -0.78580
O1631       O  0.87052484  0.10475181  0.73546499    -0.78500
O1632       O  0.90950434  0.11660256  0.81998393    -0.78480
O1633       O  0.95420192  0.09814442  0.65986645    -0.78520
C1634       C  0.92648586  0.08527835  0.65852096     1.11210
C1635       C  0.91308449  0.08690261  0.83567351     1.11090
C1636       C  0.96274866  0.03989746  0.73297034     1.11230
C1637       C  0.85639760  0.12167678  0.75889996     1.11110
O1638       O  0.87894425  0.17350311  0.71140369    -0.78480
O1639       O  0.49345107  0.07761644  0.78187963    -0.78560
O1640       O  0.97262384  0.15957351  0.69385000    -0.78490
O1641       O  0.96021933  0.16859372  0.79635704    -0.78470
O1642       O  0.96692283  0.11767545  0.81675872    -0.78530
O1643       O  0.92677251  0.15333294  0.66379376    -0.78490
O1644       O  0.91524973  0.19503036  0.74694028    -0.78450
O1645       O  0.50406171  0.12268178  0.74860855    -0.78520
Co1646     Co  0.89931483  0.12782818  0.70203580     1.51530
Co1647     Co  0.94482057  0.08825948  0.78035768     1.51690
Co1648     Co  0.97606976  0.11190234  0.70762863     1.51570
Co1649     Co  0.91663436  0.15481941  0.78022907     1.51470
O1650       O  0.93639136  0.12312798  0.74030583    -1.40410
C1651       C  0.88964946  0.19855563  0.72762294     1.11140
C1652       C  0.51368468  0.09864222  0.76947321     1.11230
C1653       C  0.95570762  0.16464444  0.66554708     1.11160
C1654       C  0.97388356  0.14797295  0.81813383     1.11140
O1655       O  0.52551712  0.38528987  0.66961684    -0.78480
O1656       O  0.54086783  0.32964846  0.82314793    -0.78500
O1657       O  0.60623748  0.30995662  0.72707663    -0.78510
O1658       O  0.99821398  0.38441464  0.77972768    -0.78450
O1659       O  0.57506744  0.29424029  0.77242060    -0.78580
O1660       O  0.00384876  0.35607761  0.73109577    -0.78500
O1661       O  0.53448261  0.38364880  0.83557518    -0.78480
O1662       O  0.55251118  0.33801529  0.68636957    -0.78520
C1663       C  0.53268598  0.35465045  0.66414130     1.11210
C1664       C  0.53091207  0.35246385  0.84355386     1.11090
C1665       C  0.59489661  0.28709590  0.74782213     1.11230
C1666       C  0.98735505  0.36373457  0.75808454     1.11110
O1667       O  0.52005919  0.42854281  0.72974506    -0.78480
O1668       O  0.63014734  0.33427777  0.78654067    -0.78560
O1669       O  0.61213421  0.36251678  0.67596383    -0.78490
O1670       O  0.58553659  0.41884331  0.80195454    -0.78470
O1671       O  0.59584033  0.37103984  0.83408554    -0.78530
O1672       O  0.58287081  0.40707948  0.69255634    -0.78490
O1673       O  0.52130445  0.44452163  0.78805534    -0.78450
O1674       O  0.62732054  0.37580394  0.74587262    -0.78520
Co1675     Co  0.54317407  0.38175518  0.71681882     1.51530
Co1676     Co  0.58394379  0.33325971  0.80202742     1.51690
Co1677     Co  0.58927104  0.35769964  0.71940947     1.51570
Co1678     Co  0.54305500  0.40193590  0.78529517     1.51470
O1679       O  0.56392534  0.36388481  0.76361966    -1.40410
C1680       C  0.51230241  0.44986361  0.75488030     1.11140
C1681       C  0.64320584  0.35824422  0.76957237     1.11230
C1682       C  0.60415704  0.39329972  0.67093963     1.11160
C1683       C  0.59913653  0.40264210  0.82874983     1.11140
O1684       O  0.84853963  0.40666849  0.68713379    -0.78480
O1685       O  0.81203835  0.41899828  0.82100379    -0.78500
O1686       O  0.77394259  0.43522567  0.70726627    -0.78510
O1687       O  0.87180710  0.32899717  0.77631304    -0.78450
O1688       O  0.77479112  0.43307772  0.76651199    -0.78580
O1689       O  0.88121246  0.37108230  0.73846631    -0.78500
O1690       O  0.84460520  0.37570113  0.80932827    -0.78480
O1691       O  0.80481412  0.40207556  0.65505812    -0.78520
C1692       C  0.83369092  0.41204368  0.65797117     1.11210
C1693       C  0.83700307  0.40093157  0.82861772     1.11090
C1694       C  0.76576806  0.44690240  0.73702818     1.11230
C1695       C  0.89165526  0.34882126  0.76096177     1.11110
O1696       O  0.85564257  0.30983212  0.71247632    -0.78480
O1697       O  0.76214277  0.37904773  0.78579750    -0.78560
O1698       O  0.77597139  0.34002574  0.68431066    -0.78490
O1699       O  0.81383202  0.31904722  0.82385402    -0.78470
O1700       O  0.78162117  0.36430821  0.81018644    -0.78530
O1701       O  0.82243152  0.34333570  0.65695258    -0.78490
O1702       O  0.81531769  0.29814138  0.74985648    -0.78450
O1703       O  0.74096182  0.37677188  0.72979080    -0.78520
Co1704     Co  0.85047223  0.35888151  0.70035184     1.51530
Co1705     Co  0.80773086  0.39707444  0.77603706     1.51690
Co1706     Co  0.77608915  0.38694547  0.69680864     1.51570
Co1707     Co  0.82307231  0.34004988  0.77707923     1.51470
O1708       O  0.81279882  0.37003575  0.73239359    -1.40410
C1709       C  0.83878243  0.28861794  0.72968945     1.11140
C1710       C  0.73808443  0.37492321  0.76356176     1.11230
C1711       C  0.79267580  0.33449672  0.65718925     1.11160
C1712       C  0.78951955  0.33840465  0.83141604     1.11140
C1713       C  0.92638733  0.34617167  0.76636913    -0.11620
C1714       C  0.95520804  0.35101282  0.76361165    -0.13170
C1715       C  0.70599852  0.36827637  0.77596740    -0.11620
C1716       C  0.67710221  0.36403630  0.77588066    -0.13090
C1717       C  0.97588518  0.00550811  0.73813042    -0.11620
C1718       C  0.49191977  0.97967599  0.74512806    -0.13170
C1719       C  0.86924054  0.22910461  0.72841922    -0.11620
C1720       C  0.85160327  0.25420309  0.72976196    -0.13170
C1721       C  0.74436826  0.47539011  0.73775559    -0.11620
C1722       C  0.72688215  0.49961666  0.74090027    -0.13170
C1723       C  0.60865503  0.25360792  0.74787146    -0.11620
C1724       C  0.62228368  0.22667881  0.75358463    -0.13170
C1725       C  0.79527163  0.10981960  0.76762993    -0.11620
C1726       C  0.82366728  0.11500301  0.76658277    -0.13170
C1727       C  0.54776822  0.09528414  0.77656618    -0.11620
C1728       C  0.57650451  0.09939616  0.77427315    -0.13170
C1729       C  0.51640778  0.34276211  0.87666462    -0.11620
C1730       C  0.00135144  0.34111102  0.90402502    -0.13170
C1731       C  0.51629874  0.33936190  0.63455696    -0.11620
C1732       C  0.99833756  0.34013312  0.60841896    -0.13170
C1733       C  0.87606492  0.40370552  0.88436753    -0.11620
C1734       C  0.85713550  0.40660230  0.85935146    -0.13170
C1735       C  0.85339523  0.41724615  0.62696519    -0.11620
C1736       C  0.87491216  0.41073068  0.60636179    -0.13170
C1737       C  0.74877190  0.33965880  0.88575464    -0.11620
C1738       C  0.76907251  0.33393109  0.86283308    -0.13170
C1739       C  0.77396023  0.32929475  0.62469287    -0.11620
C1740       C  0.75142117  0.33531349  0.60374125    -0.13170
C1741       C  0.61643941  0.41917416  0.85688249    -0.11620
C1742       C  0.63095501  0.41886521  0.88559176    -0.13170
C1743       C  0.61900743  0.41051671  0.64017497    -0.11620
C1744       C  0.63352496  0.41065420  0.61151993    -0.13170
C1745       C  0.82560311  0.37193548  0.49154706    -0.11620
C1746       C  0.79684798  0.36915699  0.99064755    -0.13170
C1747       C  0.57504531  0.37693954  0.48413394    -0.11620
C1748       C  0.54677732  0.38533761  0.48525892    -0.13170
C1749       C  0.74814301  0.16141766  0.85138177    -0.11620
C1750       C  0.76519386  0.16370926  0.87802458    -0.13170
C1751       C  0.75529003  0.15482188  0.62004049    -0.11620
C1752       C  0.73759004  0.15496448  0.64585820    -0.13170
C1753       C  0.87673232  0.08641842  0.89288227    -0.11620
C1754       C  0.89475199  0.08106762  0.86801378    -0.13170
C1755       C  0.90656674  0.08709740  0.62572100    -0.11620
C1756       C  0.88473798  0.09508615  0.60428006    -0.13170
C1757       C  0.76152140  0.00874605  0.49593900    -0.11620
C1758       C  0.74624982  0.48319263  0.99372685    -0.13170
C1759       C  0.88339066  0.26417583  0.49859980    -0.11620
C1760       C  0.86737424  0.23904313  0.49936348    -0.13170
C1761       C  0.51097613  0.15601995  0.87506217    -0.11620
C1762       C  0.99526530  0.15729046  0.84705461    -0.13170
C1763       C  0.97384457  0.17040583  0.63276905    -0.11620
C1764       C  0.49376324  0.16417173  0.60973596    -0.13170
C1765       C  0.64110593  0.08722210  0.88229172    -0.11620
C1766       C  0.62502503  0.08619447  0.90913290    -0.13170
C1767       C  0.61190209  0.08777540  0.61345986    -0.11620
C1768       C  0.62922171  0.08635404  0.64003917    -0.13170
C1769       C  0.97932633  0.99605633  0.50660000    -0.11620
C1770       C  0.49640908  0.02018425  0.50231281    -0.13170
C1771       C  0.94700023  0.13184648  0.99033882    -0.11620
C1772       C  0.91861355  0.12949197  0.99545937    -0.13170
C1773       C  0.67002779  0.13214443  0.49972654    -0.11620
C1774       C  0.69875751  0.12535239  0.50126834    -0.13170
C1775       C  0.60936493  0.24153109  0.01065661    -0.11620
C1776       C  0.62974444  0.26290791  0.00981364    -0.13170
O1777       O  0.59543176  0.68948602  0.03441644    -0.78480
O1778       O  0.99600324  0.61144651  0.47017154    -0.78500
O1779       O  0.53809045  0.67238607  0.42783576    -0.78510
O1780       O  0.51523414  0.61617205  0.08216403    -0.78450
O1781       O  0.53463913  0.61729649  0.41763512    -0.78580
O1782       O  0.53645252  0.66474764  0.06561460    -0.78500
O1783       O  0.99583492  0.64164673  0.01785231    -0.78480
O1784       O  0.56972947  0.70791679  0.48459048    -0.78520
C1785       C  0.58892357  0.71274133  0.51102386     1.11210
C1786       C  0.98119025  0.62969090  0.49176649     1.11090
C1787       C  0.52844062  0.64831619  0.40857503     1.11230
C1788       C  0.51663575  0.64783508  0.08588687     1.11110
O1789       O  0.59570113  0.63833451  0.08617121    -0.78480
O1790       O  0.58862965  0.58475608  0.45806792    -0.78560
O1791       O  0.62477927  0.66358729  0.47773530    -0.78490
O1792       O  0.51847135  0.57115211  0.02131391    -0.78470
O1793       O  0.52755412  0.55471336  0.46394223    -0.78530
O1794       O  0.61746293  0.62375314  0.01937011    -0.78490
O1795       O  0.57548020  0.59321955  0.06192733    -0.78450
O1796       O  0.59425494  0.63133944  0.42436446    -0.78520
Co1797     Co  0.57692209  0.64380659  0.03943429     1.51530
Co1798     Co  0.54314622  0.59869601  0.46861139     1.51690
Co1799     Co  0.57988772  0.66806222  0.45560564     1.51570
Co1800     Co  0.53589588  0.61855856  0.03612735     1.51470
O1801       O  0.55693900  0.63826914  0.99137582    -1.40410
C1802       C  0.59327081  0.60670567  0.08652438     1.11140
C1803       C  0.60216197  0.60107039  0.43255526     1.11230
C1804       C  0.63586543  0.63999728  0.99863890     1.11160
C1805       C  0.51578496  0.54942928  0.99559659     1.11140
O1806       O  0.78419518  0.55550749  0.02478950    -0.78480
O1807       O  0.86556720  0.61429775  0.48675982    -0.78500
O1808       O  0.83683215  0.58748997  0.43975061    -0.78510
O1809       O  0.85067532  0.64195784  0.08797500    -0.78450
O1810       O  0.85801011  0.63562937  0.41861402    -0.78580
O1811       O  0.84280479  0.59416553  0.05804704    -0.78500
O1812       O  0.87467618  0.64913682  0.02663574    -0.78480
O1813       O  0.77953648  0.55580570  0.46339579    -0.78520
C1814       C  0.77642427  0.54123926  0.99462177     1.11210
C1815       C  0.88542133  0.62956200  0.00439744     1.11090
C1816       C  0.85587104  0.60376286  0.41756067     1.11230
C1817       C  0.85768808  0.61058657  0.08343528     1.11110
O1818       O  0.78176189  0.61247178  0.08753684    -0.78480
O1819       O  0.80061304  0.66952441  0.42878666    -0.78560
O1820       O  0.74730491  0.61286370  0.47308792    -0.78490
O1821       O  0.83616565  0.69921948  0.02981109    -0.78470
O1822       O  0.85295825  0.68828143  0.47306086    -0.78530
O1823       O  0.74841310  0.61464047  0.03115061    -0.78490
O1824       O  0.78741725  0.66417503  0.06826660    -0.78450
O1825       O  0.77940132  0.62064172  0.41913552    -0.78520
Co1826     Co  0.79572483  0.60429941  0.03765780     1.51530
Co1827     Co  0.83289068  0.64350050  0.45986806     1.51690
Co1828     Co  0.79366498  0.60124002  0.46695980     1.51570
Co1829     Co  0.82870664  0.65154741  0.04278568     1.51470
O1830       O  0.80403786  0.64156252  0.99809877    -1.40410
C1831       C  0.77588205  0.64360303  0.09133069     1.11140
C1832       C  0.78227580  0.65139293  0.41013525     1.11230
C1833       C  0.73287622  0.61727744  0.00195332     1.11160
C1834       C  0.85034867  0.70780922  0.50033791     1.11140
O1835       O  0.64461927  0.81478691  0.02992172    -0.78480
O1836       O  0.74902494  0.89163238  0.46833175    -0.78500
O1837       O  0.70922048  0.82757832  0.42942820    -0.78510
O1838       O  0.72759036  0.88445788  0.07800260    -0.78450
O1839       O  0.71668120  0.88179954  0.41414981    -0.78580
O1840       O  0.70544801  0.83658469  0.06235159    -0.78500
O1841       O  0.74693829  0.85952788  0.01591340    -0.78480
O1842       O  0.67087601  0.79522548  0.48329130    -0.78520
C1843       C  0.65059235  0.79139331  0.50851907     1.11210
C1844       C  0.76274151  0.87222761  0.49093533     1.11090
C1845       C  0.72380629  0.85019202  0.41103931     1.11230
C1846       C  0.72621591  0.85258916  0.08198620     1.11110
O1847       O  0.64572707  0.86273613  0.07972253    -0.78480
O1848       O  0.65869929  0.91843985  0.44239712    -0.78560
O1849       O  0.61953769  0.84373465  0.46691057    -0.78490
O1850       O  0.72435232  0.93142598  0.01470833    -0.78470
O1851       O  0.71912424  0.94719949  0.45502161    -0.78530
O1852       O  0.62598178  0.88041031  0.01056192    -0.78490
O1853       O  0.66751017  0.90850109  0.05733257    -0.78450
O1854       O  0.65537727  0.87145073  0.41249234    -0.78520
Co1855     Co  0.66532586  0.85901549  0.03378539     1.51530
Co1856     Co  0.70246822  0.90382788  0.46087632     1.51690
Co1857     Co  0.66527004  0.83534140  0.45023052     1.51570
Co1858     Co  0.70687735  0.88345573  0.03168428     1.51470
O1859       O  0.68618298  0.86526535  0.48630088    -1.40410
C1860       C  0.64959545  0.89391931  0.08176025     1.11140
C1861       C  0.64850834  0.90253504  0.41548098     1.11230
C1862       C  0.60857348  0.86681959  0.48690969     1.11160
C1863       C  0.72843745  0.95302067  0.48756088     1.11140
O1864       O  0.97295862  0.94145395  0.03006807    -0.78480
O1865       O  0.87550746  0.85508734  0.47184428    -0.78500
O1866       O  0.90954532  0.92105379  0.43074940    -0.78510
O1867       O  0.89898142  0.86257730  0.08248352    -0.78450
O1868       O  0.90972251  0.86614656  0.41879471    -0.78580
O1869       O  0.91736433  0.91222460  0.06363505    -0.78500
O1870       O  0.87399191  0.88473065  0.01964880    -0.78480
O1871       O  0.94239607  0.95817758  0.48326949    -0.78520
C1872       C  0.96270039  0.96457043  0.00801147     1.11210
C1873       C  0.85976640  0.87174121  0.99388287     1.11090
C1874       C  0.89933741  0.89660731  0.41274958     1.11230
C1875       C  0.89893846  0.89458455  0.08465312     1.11110
O1876       O  0.97879611  0.88973263  0.08137097    -0.78480
O1877       O  0.96856945  0.83728914  0.45524034    -0.78560
O1878       O  0.99959247  0.91737278  0.47118410    -0.78490
O1879       O  0.90244774  0.81602973  0.02060601    -0.78470
O1880       O  0.91125870  0.80230502  0.46215307    -0.78530
O1881       O  0.99750187  0.87673157  0.01297568    -0.78490
O1882       O  0.95932463  0.84331257  0.05898006    -0.78450
O1883       O  0.96755479  0.88365300  0.42036719    -0.78520
Co1884     Co  0.95745154  0.89419657  0.03595268     1.51530
Co1885     Co  0.92312611  0.84695382  0.46817705     1.51690
Co1886     Co  0.95323587  0.91924075  0.45329082     1.51570
Co1887     Co  0.91682749  0.86522873  0.03530857     1.51470
O1888       O  0.93470916  0.88746263  0.99016147    -1.40410
C1889       C  0.97772295  0.85796595  0.08224493     1.11140
C1890       C  0.97871820  0.85434533  0.42841216     1.11230
C1891       C  0.01311514  0.89352275  0.98989434     1.11160
C1892       C  0.90077154  0.79497946  0.99385818     1.11140
O1893       O  0.72486626  0.60600785  0.17533163    -0.78480
O1894       O  0.71155004  0.66072607  0.30139629    -0.78500
O1895       O  0.64314280  0.67381560  0.23691593    -0.78510
O1896       O  0.75114082  0.57801178  0.28228189    -0.78450
O1897       O  0.64884960  0.68915164  0.29523373    -0.78580
O1898       O  0.74386548  0.62060726  0.24350887    -0.78500
O1899       O  0.72189983  0.61373814  0.33438538    -0.78480
O1900       O  0.70080775  0.65152111  0.19661550    -0.78520
C1901       C  0.72004107  0.63741393  0.17340514     1.11210
C1902       C  0.72674003  0.64477305  0.32711332     1.11090
C1903       C  0.63903795  0.69533147  0.26254018     1.11230
C1904       C  0.76190030  0.60283677  0.26470666     1.11110
O1905       O  0.72244147  0.55559793  0.22548000    -0.78480
O1906       O  0.62128677  0.63078535  0.28805009    -0.78560
O1907       O  0.64171511  0.63144731  0.17549632    -0.78490
O1908       O  0.66600585  0.57277103  0.32905198    -0.78470
O1909       O  0.66125620  0.62721674  0.34103168    -0.78530
O1910       O  0.66630532  0.58264118  0.19065180    -0.78490
O1911       O  0.69607684  0.53749645  0.27377351    -0.78450
O1912       O  0.62255312  0.60299582  0.23846816    -0.78520
Co1913     Co  0.70479545  0.60208269  0.22036319     1.51530
Co1914     Co  0.66710766  0.64572889  0.29006282     1.51690
Co1915     Co  0.66184474  0.62661986  0.22175268     1.51570
Co1916     Co  0.70705335  0.57639151  0.30308259     1.51470
O1917       O  0.68357907  0.60698586  0.26701723    -1.40410
C1918       C  0.71297990  0.53198882  0.24604798     1.11140
C1919       C  0.60837988  0.61091280  0.26688236     1.11230
C1920       C  0.64674799  0.60048229  0.16942879     1.11160
C1921       C  0.65671063  0.59615073  0.34927769     1.11140
O1922       O  0.91210762  0.58288147  0.18766029    -0.78480
O1923       O  0.93248355  0.56437583  0.32325779    -0.78500
O1924       O  0.98128724  0.56154426  0.21842852    -0.78510
O1925       O  0.86942470  0.64684804  0.27228562    -0.78450
O1926       O  0.93701221  0.54963219  0.24898984    -0.78580
O1927       O  0.87052481  0.60475184  0.23546467    -0.78500
O1928       O  0.90950424  0.61660197  0.31998370    -0.78480
O1929       O  0.95420198  0.59814466  0.15986620    -0.78520
C1930       C  0.92648588  0.58527869  0.15852062     1.11210
C1931       C  0.91308438  0.58690192  0.33567306     1.11090
C1932       C  0.96274860  0.53989744  0.23296994     1.11230
C1933       C  0.85639755  0.62167671  0.25889971     1.11110
O1934       O  0.87894434  0.67350322  0.21140374    -0.78480
O1935       O  0.49345103  0.57761601  0.28187936    -0.78560
O1936       O  0.97262392  0.65957360  0.19385001    -0.78490
O1937       O  0.96021929  0.66859331  0.29635728    -0.78470
O1938       O  0.96692272  0.61767496  0.31675867    -0.78530
O1939       O  0.92677260  0.65333321  0.16379371    -0.78490
O1940       O  0.91524972  0.69503028  0.24694063    -0.78450
O1941       O  0.50406172  0.62268143  0.24860847    -0.78520
Co1942     Co  0.89931487  0.62782833  0.20203563     1.51530
Co1943     Co  0.94482049  0.58825925  0.28035736     1.51690
Co1944     Co  0.97606978  0.61190238  0.20762847     1.51570
Co1945     Co  0.91663433  0.65481912  0.28022914     1.51470
O1946       O  0.93639137  0.62312794  0.24030569    -1.40410
C1947       C  0.88964950  0.69855565  0.22762320     1.11140
C1948       C  0.51368466  0.59864183  0.26947306     1.11230
C1949       C  0.95570772  0.66464467  0.16554710     1.11160
C1950       C  0.97388348  0.64797243  0.31813398     1.11140
O1951       O  0.52551738  0.88529009  0.16961666    -0.78480
O1952       O  0.54086787  0.82964819  0.32314800    -0.78500
O1953       O  0.60623744  0.80995661  0.22707646    -0.78510
O1954       O  0.99821388  0.88441422  0.27972795    -0.78450
O1955       O  0.57506737  0.79424028  0.27242040    -0.78580
O1956       O  0.00384863  0.85607743  0.23109586    -0.78500
O1957       O  0.53448244  0.88364848  0.33557533    -0.78480
O1958       O  0.55251117  0.83801537  0.18636938    -0.78520
C1959       C  0.53268612  0.85465066  0.16414106     1.11210
C1960       C  0.53091200  0.85246351  0.34355397     1.11090
C1961       C  0.59489653  0.78709590  0.24782193     1.11230
C1962       C  0.98735496  0.86373424  0.25808471     1.11110
O1963       O  0.52005936  0.92854281  0.22974503    -0.78480
O1964       O  0.63014734  0.83427774  0.28654051    -0.78560
O1965       O  0.61213424  0.86251675  0.17596369    -0.78490
O1966       O  0.58553639  0.91884321  0.30195500    -0.78470
O1967       O  0.59584031  0.87103957  0.33408563    -0.78530
O1968       O  0.58287109  0.90707954  0.19255628    -0.78490
O1969       O  0.52130421  0.94452141  0.28805541    -0.78450
O1970       O  0.62732049  0.87580393  0.24587250    -0.78520
Co1971     Co  0.54317424  0.88175525  0.21681870     1.51530
Co1972     Co  0.58394379  0.83325958  0.30202735     1.51690
Co1973     Co  0.58927102  0.85769964  0.21940934     1.51570
Co1974     Co  0.54305489  0.90193573  0.28529535     1.51470
O1975       O  0.56392535  0.86388478  0.26361963    -1.40410
C1976       C  0.51230240  0.94986351  0.25488030     1.11140
C1977       C  0.64320582  0.85824419  0.26957219     1.11230
C1978       C  0.60415728  0.89329974  0.17093954     1.11160
C1979       C  0.59913636  0.90264188  0.32875021     1.11140
O1980       O  0.84854009  0.90666843  0.18713378    -0.78480
O1981       O  0.81203821  0.91899831  0.32100383    -0.78500
O1982       O  0.77394266  0.93522579  0.20726607    -0.78510
O1983       O  0.87180693  0.82899708  0.27631330    -0.78450
O1984       O  0.77479117  0.93307794  0.26651181    -0.78580
O1985       O  0.88121249  0.87108220  0.23846663    -0.78500
O1986       O  0.84460501  0.87570111  0.30932833    -0.78480
O1987       O  0.80481455  0.90207569  0.15505806    -0.78520
C1988       C  0.83369140  0.91204369  0.15797114     1.11210
C1989       C  0.83700286  0.90093150  0.32861784     1.11090
C1990       C  0.76576817  0.94690262  0.23702797     1.11230
C1991       C  0.89165519  0.84882109  0.26096206     1.11110
O1992       O  0.85564258  0.80983208  0.21247650    -0.78480
O1993       O  0.76214268  0.87904786  0.28579725    -0.78560
O1994       O  0.77597170  0.84002584  0.18431037    -0.78490
O1995       O  0.81383160  0.81904733  0.32385404    -0.78470
O1996       O  0.78162090  0.86430840  0.31018641    -0.78530
O1997       O  0.82243192  0.84333577  0.15695252    -0.78490
O1998       O  0.81531757  0.79814140  0.24985650    -0.78450
O1999       O  0.74096193  0.87677192  0.22979045    -0.78520
Co2000     Co  0.85047244  0.85888148  0.20035197     1.51530
Co2001     Co  0.80773079  0.89707453  0.27603704     1.51690
Co2002     Co  0.77608937  0.88694557  0.19680843     1.51570
Co2003     Co  0.82307214  0.84004991  0.27707925     1.51470
O2004       O  0.81279890  0.87003583  0.23239355    -1.40410
C2005       C  0.83878239  0.78861793  0.22968960     1.11140
C2006       C  0.73808442  0.87492328  0.26356140     1.11230
C2007       C  0.79267618  0.83449687  0.15718901     1.11160
C2008       C  0.78951916  0.83840482  0.33141604     1.11140
C2009       C  0.92638725  0.84617132  0.26636939    -0.11620
C2010       C  0.95520796  0.85101242  0.26361183    -0.13170
C2011       C  0.70599850  0.86827638  0.27596697    -0.11620
C2012       C  0.67710221  0.86403626  0.27588035    -0.13090
C2013       C  0.97588507  0.50550811  0.23813032    -0.11620
C2014       C  0.49191928  0.47967568  0.24512861    -0.13170
C2015       C  0.86924058  0.72910463  0.22841954    -0.11620
C2016       C  0.85160327  0.75420308  0.22976222    -0.13170
C2017       C  0.74436849  0.97539048  0.23775530    -0.11620
C2018       C  0.72688242  0.99961710  0.24089985    -0.13170
C2019       C  0.60865491  0.75360792  0.24787129    -0.11620
C2020       C  0.62228352  0.72667882  0.25358453    -0.13170
C2021       C  0.79527154  0.60981967  0.26762963    -0.11620
C2022       C  0.82366722  0.61500296  0.26658245    -0.13170
C2023       C  0.54776820  0.59528377  0.27656607    -0.11620
C2024       C  0.57650447  0.59939594  0.27427301    -0.13170
C2025       C  0.51640761  0.84276165  0.37666467    -0.11620
C2026       C  0.00135126  0.84111023  0.40402514    -0.13170
C2027       C  0.51629896  0.83936227  0.13455656    -0.11620
C2028       C  0.99833765  0.84013355  0.10841850    -0.13170
C2029       C  0.87606454  0.90370496  0.38436782    -0.11620
C2030       C  0.85713518  0.90660201  0.35935173    -0.13170
C2031       C  0.85339574  0.91724627  0.12696516    -0.11620
C2032       C  0.87491262  0.91073101  0.10636160    -0.13170
C2033       C  0.74877150  0.83965873  0.38575477    -0.11620
C2034       C  0.76907206  0.83393125  0.36283306    -0.13170
C2035       C  0.77396073  0.82929510  0.12469249    -0.11620
C2036       C  0.75142179  0.83531396  0.10374074    -0.13170
C2037       C  0.61643910  0.91917380  0.35688311    -0.11620
C2038       C  0.63095461  0.91886471  0.38559246    -0.13170
C2039       C  0.61900789  0.91051672  0.14017496    -0.11620
C2040       C  0.63352552  0.91065434  0.11151995    -0.13170
C2041       C  0.82560357  0.87193671  0.99154647    -0.11620
C2042       C  0.79684767  0.86915620  0.49064809    -0.13170
C2043       C  0.57504576  0.87694047  0.98413328    -0.11620
C2044       C  0.54677776  0.88533868  0.98525814    -0.13170
C2045       C  0.74814290  0.66141726  0.35138186    -0.11620
C2046       C  0.76519380  0.66370849  0.37802467    -0.13170
C2047       C  0.75528960  0.65482289  0.12004002    -0.11620
C2048       C  0.73758967  0.65496507  0.14585782    -0.13170
C2049       C  0.87673216  0.58641728  0.39288179    -0.11620
C2050       C  0.89475182  0.58106667  0.36801324    -0.13170
C2051       C  0.90656675  0.58709805  0.12572069    -0.11620
C2052       C  0.88473798  0.59508699  0.10427984    -0.13170
C2053       C  0.76152169  0.50874657  0.99593872    -0.11620
C2054       C  0.74624951  0.98319211  0.49372734    -0.13170
C2055       C  0.88339082  0.76417701  0.99859902    -0.11620
C2056       C  0.86737423  0.73904444  0.99936303    -0.13170
C2057       C  0.51097613  0.65601912  0.37506240    -0.11620
C2058       C  0.99526521  0.65728978  0.34705483    -0.13170
C2059       C  0.97384470  0.67040622  0.13276911    -0.11620
C2060       C  0.49376353  0.66417222  0.10973611    -0.13170
C2061       C  0.64110580  0.58722177  0.38229146    -0.11620
C2062       C  0.62502504  0.58619399  0.40913275    -0.13170
C2063       C  0.61190221  0.58777566  0.11345945    -0.11620
C2064       C  0.62922174  0.58635424  0.14003882    -0.13170
C2065       C  0.97932604  0.49605737  0.00659987    -0.11620
C2066       C  0.49640873  0.52018537  0.00231260    -0.13170
C2067       C  0.94700021  0.63184521  0.49033873    -0.11620
C2068       C  0.91861354  0.62949050  0.49545920    -0.13170
C2069       C  0.67002784  0.63214482  0.99972632    -0.11620
C2070       C  0.69875755  0.62535278  0.00126817    -0.13170
C2071       C  0.60936481  0.74153047  0.51065692    -0.11620
C2072       C  0.62974434  0.76290729  0.50981407    -0.13170
O2073       O  0.59543165  0.68948537  0.53441661    -0.78480
O2074       O  0.99600294  0.61144772  0.97017139    -0.78500
O2075       O  0.53809037  0.67238703  0.92783560    -0.78510
O2076       O  0.51523401  0.61617139  0.58216409    -0.78450
O2077       O  0.53463890  0.61729748  0.91763496    -0.78580
O2078       O  0.53645236  0.66474696  0.56561453    -0.78500
O2079       O  0.99583487  0.64164580  0.51785224    -0.78480
O2080       O  0.56972958  0.70791757  0.98459034    -0.78520
C2081       C  0.58892372  0.71274202  0.01102370     1.11210
C2082       C  0.98119013  0.62969207  0.99176652     1.11090
C2083       C  0.52844048  0.64831718  0.90857486     1.11230
C2084       C  0.51663557  0.64783445  0.58588681     1.11110
O2085       O  0.59570095  0.63833402  0.58617147    -0.78480
O2086       O  0.58862928  0.58475687  0.95806781    -0.78560
O2087       O  0.62477924  0.66358795  0.97773502    -0.78490
O2088       O  0.51847151  0.57115114  0.52131417    -0.78470
O2089       O  0.52755369  0.55471446  0.96394189    -0.78530
O2090       O  0.61746300  0.62375253  0.51937048    -0.78490
O2091       O  0.57548021  0.59321893  0.56192769    -0.78450
O2092       O  0.59425473  0.63134015  0.92436427    -0.78520
Co2093     Co  0.57692205  0.64380591  0.53943447     1.51530
Co2094     Co  0.54314590  0.59869700  0.96861123     1.51690
Co2095     Co  0.57988767  0.66806301  0.95560544     1.51570
Co2096     Co  0.53589588  0.61855773  0.53612748     1.51470
O2097       O  0.55693911  0.63826825  0.49137597    -1.40410
C2098       C  0.59327073  0.60670518  0.58652474     1.11140
C2099       C  0.60216171  0.60107111  0.93255518     1.11230
C2100       C  0.63586549  0.63999665  0.49863923     1.11160
C2101       C  0.51578527  0.54942822  0.49559690     1.11140
O2102       O  0.78419494  0.55550715  0.52478960    -0.78480
O2103       O  0.86556712  0.61429927  0.98676006    -0.78500
O2104       O  0.83683231  0.58749116  0.93975096    -0.78510
O2105       O  0.85067570  0.64195713  0.58797490    -0.78450
O2106       O  0.85801002  0.63563063  0.91861419    -0.78580
O2107       O  0.84280482  0.59416470  0.55804736    -0.78500
O2108       O  0.87467638  0.64913533  0.52663543    -0.78480
O2109       O  0.77953646  0.55580684  0.96339571    -0.78520
C2110       C  0.77642413  0.54123854  0.49462203     1.11210
C2111       C  0.88542146  0.62956041  0.50439719     1.11090
C2112       C  0.85587114  0.60376408  0.91756099     1.11230
C2113       C  0.85768830  0.61058580  0.58343541     1.11110
O2114       O  0.78176213  0.61247053  0.58753753    -0.78480
O2115       O  0.80061281  0.66952559  0.92878668    -0.78560
O2116       O  0.74730495  0.61286524  0.97308743    -0.78490
O2117       O  0.83616589  0.69921812  0.52981096    -0.78470
O2118       O  0.85295793  0.68828281  0.97306095    -0.78530
O2119       O  0.74841324  0.61464063  0.53115103    -0.78490
O2120       O  0.78741757  0.66417367  0.56826678    -0.78450
O2121       O  0.77940162  0.62064274  0.91913528    -0.78520
Co2122     Co  0.79572484  0.60429903  0.53765834     1.51530
Co2123     Co  0.83289050  0.64350181  0.95986821     1.51690
Co2124     Co  0.79366497  0.60124128  0.96695972     1.51570
Co2125     Co  0.82870689  0.65154605  0.54278556     1.51470
O2126       O  0.80403805  0.64156130  0.49809856    -1.40410
C2127       C  0.77588247  0.64360185  0.59133120     1.11140
C2128       C  0.78227588  0.65139397  0.91013506     1.11230
C2129       C  0.73287629  0.61727678  0.50195373     1.11160
C2130       C  0.85034836  0.70781058  0.00033801     1.11140
O2131       O  0.64461891  0.81478641  0.52992201    -0.78480
O2132       O  0.74902516  0.89163324  0.96833131    -0.78500
O2133       O  0.70922075  0.82757885  0.92942798    -0.78510
O2134       O  0.72758983  0.88445748  0.57800298    -0.78450
O2135       O  0.71668154  0.88180005  0.91414951    -0.78580
O2136       O  0.70544749  0.83658426  0.56235205    -0.78500
O2137       O  0.74693789  0.85952715  0.51591394    -0.78480
O2138       O  0.67087628  0.79522603  0.98329096    -0.78520
C2139       C  0.65059266  0.79139385  0.00851876     1.11210
C2140       C  0.76274184  0.87222852  0.99093484     1.11090
C2141       C  0.72380660  0.85019251  0.91103911     1.11230
C2142       C  0.72621536  0.85258876  0.58198665     1.11110
O2143       O  0.64572655  0.86273596  0.57972268    -0.78480
O2144       O  0.65869949  0.91844038  0.94239668    -0.78560
O2145       O  0.61953795  0.84373534  0.96691030    -0.78490
O2146       O  0.72435214  0.93142534  0.51470858    -0.78470
O2147       O  0.71912436  0.94720021  0.95502138    -0.78530
O2148       O  0.62598145  0.88040981  0.51056199    -0.78490
O2149       O  0.66750979  0.90850077  0.55733248    -0.78450
O2150       O  0.65537760  0.87145122  0.91249197    -0.78520
Co2151     Co  0.66532544  0.85901504  0.53378564     1.51530
Co2152     Co  0.70246842  0.90382853  0.96087594     1.51690
Co2153     Co  0.66527031  0.83534197  0.95023023     1.51570
Co2154     Co  0.70687698  0.88345520  0.53168457     1.51470
O2155       O  0.68618326  0.86526596  0.98630057    -1.40410
C2156       C  0.64959499  0.89391916  0.58176018     1.11140
C2157       C  0.64850863  0.90253552  0.91548053     1.11230
C2158       C  0.60857377  0.86682024  0.98690953     1.11160
C2159       C  0.72843757  0.95302137  0.98756067     1.11140
O2160       O  0.97295849  0.94145310  0.53006807    -0.78480
O2161       O  0.87550776  0.85508853  0.97184399    -0.78500
O2162       O  0.90954583  0.92105454  0.93074901    -0.78510
O2163       O  0.89898147  0.86257640  0.58248379    -0.78450
O2164       O  0.90972308  0.86614730  0.91879448    -0.78580
O2165       O  0.91736419  0.91222371  0.56363506    -0.78500
O2166       O  0.87399165  0.88472933  0.51964916    -0.78480
O2167       O  0.94239629  0.95817835  0.98326934    -0.78520
C2168       C  0.96270030  0.96456961  0.50801151     1.11210
C2169       C  0.85976609  0.87173987  0.49388328     1.11090
C2170       C  0.89933800  0.89660802  0.91274920     1.11230
C2171       C  0.89893841  0.89458368  0.58465322     1.11110
O2172       O  0.97879599  0.88973189  0.58137093    -0.78480
O2173       O  0.96856973  0.83728986  0.95524044    -0.78560
O2174       O  0.99959284  0.91737366  0.97118422    -0.78490
O2175       O  0.90244779  0.81602854  0.52060620    -0.78470
O2176       O  0.91125883  0.80230597  0.96215300    -0.78530
O2177       O  0.99750161  0.87673073  0.51297562    -0.78490
O2178       O  0.95932467  0.84331171  0.55898018    -0.78450
O2179       O  0.96755541  0.88365372  0.92036726    -0.78520
Co2180     Co  0.95745133  0.89419573  0.53595270     1.51530
Co2181     Co  0.92312639  0.84695473  0.96817696     1.51690
Co2182     Co  0.95323630  0.91924156  0.95329072     1.51570
Co2183     Co  0.91682738  0.86522765  0.53530875     1.51470
O2184       O  0.93470883  0.88746174  0.49016159    -1.40410
C2185       C  0.97772296  0.85796521  0.58224499     1.11140
C2186       C  0.97871862  0.85434597  0.92841226     1.11230
C2187       C  0.01311482  0.89352191  0.48989424     1.11160
C2188       C  0.90077158  0.79497834  0.49385829     1.11140
O2189       O  0.72486635  0.60600737  0.67533198    -0.78480
O2190       O  0.71155017  0.66072618  0.80139612    -0.78500
O2191       O  0.64314301  0.67381566  0.73691590    -0.78510
O2192       O  0.75114089  0.57801159  0.78228227    -0.78450
O2193       O  0.64884979  0.68915178  0.79523366    -0.78580
O2194       O  0.74386559  0.62060696  0.74350914    -0.78500
O2195       O  0.72190003  0.61373844  0.83438551    -0.78480
O2196       O  0.70080806  0.65152081  0.69661573    -0.78520
C2197       C  0.72004135  0.63741348  0.67340545     1.11210
C2198       C  0.72674020  0.64477333  0.82711323     1.11090
C2199       C  0.63903817  0.69533159  0.76254010     1.11230
C2200       C  0.76190041  0.60283649  0.76470694     1.11110
O2201       O  0.72244134  0.55559761  0.72548053    -0.78480
O2202       O  0.62128689  0.63078548  0.78805025    -0.78560
O2203       O  0.64171539  0.63144715  0.67549642    -0.78490
O2204       O  0.66600597  0.57277132  0.82905245    -0.78470
O2205       O  0.66125638  0.62721709  0.84103183    -0.78530
O2206       O  0.66630533  0.58264095  0.69065218    -0.78490
O2207       O  0.69607681  0.53749638  0.77377423    -0.78450
O2208       O  0.62255316  0.60299595  0.73846831    -0.78520
Co2209     Co  0.70479551  0.60208242  0.72036353     1.51530
Co2210     Co  0.66710778  0.64572898  0.79006287     1.51690
Co2211     Co  0.66184491  0.62661980  0.72175287     1.51570
Co2212     Co  0.70705344  0.57639161  0.80308302     1.51470
O2213       O  0.68357911  0.60698579  0.76701751    -1.40410
C2214       C  0.71297968  0.53198860  0.74604859     1.11140
C2215       C  0.60837995  0.61091298  0.76688251     1.11230
C2216       C  0.64674811  0.60048208  0.66942905     1.11160
C2217       C  0.65671076  0.59615113  0.84927800     1.11140
O2218       O  0.91210780  0.58288135  0.68766051    -0.78480
O2219       O  0.93248364  0.56437648  0.82325829    -0.78500
O2220       O  0.98128725  0.56154449  0.71842878    -0.78510
O2221       O  0.86942465  0.64684807  0.77228557    -0.78450
O2222       O  0.93701234  0.54963232  0.74899036    -0.78580
O2223       O  0.87052489  0.60475173  0.73546479    -0.78500
O2224       O  0.90950431  0.61660261  0.81998389    -0.78480
O2225       O  0.95420209  0.59814466  0.65986639    -0.78520
C2226       C  0.92648608  0.58527851  0.65852086     1.11210
C2227       C  0.91308452  0.58690267  0.83567347     1.11090
C2228       C  0.96274865  0.53989765  0.73297022     1.11230
C2229       C  0.85639760  0.62167661  0.75889980     1.11110
O2230       O  0.87894413  0.67350305  0.71140359    -0.78480
O2231       O  0.49345108  0.57761638  0.78187966    -0.78560
O2232       O  0.97262388  0.65957372  0.69385005    -0.78490
O2233       O  0.96021915  0.66859391  0.79635701    -0.78470
O2234       O  0.96692279  0.61767564  0.81675866    -0.78530
O2235       O  0.92677257  0.65333310  0.66379376    -0.78490
O2236       O  0.91524952  0.69503039  0.74694021    -0.78450
O2237       O  0.50406170  0.62268166  0.74860849    -0.78520
Co2238     Co  0.89931487  0.62782821  0.70203569     1.51530
Co2239     Co  0.94482057  0.58825961  0.78035764     1.51690
Co2240     Co  0.97606981  0.61190254  0.70762864     1.51570
Co2241     Co  0.91663424  0.65481946  0.78022901     1.51470
O2242       O  0.93639135  0.62312809  0.74030578    -1.40410
C2243       C  0.88964924  0.69855560  0.72762287     1.11140
C2244       C  0.51368468  0.59864215  0.76947320     1.11230
C2245       C  0.95570767  0.66464465  0.66554713     1.11160
C2246       C  0.97388343  0.64797317  0.81813379     1.11140
O2247       O  0.52551723  0.88528989  0.66961655    -0.78480
O2248       O  0.54086772  0.82964871  0.82314750    -0.78500
O2249       O  0.60623776  0.80995685  0.72707648    -0.78510
O2250       O  0.99821401  0.88441424  0.77972792    -0.78450
O2251       O  0.57506751  0.79424053  0.77242026    -0.78580
O2252       O  0.00384873  0.85607734  0.73109592    -0.78500
O2253       O  0.53448256  0.88364906  0.83557478    -0.78480
O2254       O  0.55251150  0.83801544  0.68636932    -0.78520
C2255       C  0.53268625  0.85465050  0.66414103     1.11210
C2256       C  0.53091189  0.85246411  0.84355339     1.11090
C2257       C  0.59489679  0.78709613  0.74782189     1.11230
C2258       C  0.98735506  0.86373422  0.75808474     1.11110
O2259       O  0.52005931  0.92854298  0.72974471    -0.78480
O2260       O  0.63014741  0.83427802  0.78654061    -0.78560
O2261       O  0.61213451  0.86251702  0.67596368    -0.78490
O2262       O  0.58553682  0.91884346  0.80195447    -0.78470
O2263       O  0.59584025  0.87103994  0.83408545    -0.78530
O2264       O  0.58287090  0.90707964  0.69255602    -0.78490
O2265       O  0.52130475  0.94452197  0.78805494    -0.78450
O2266       O  0.62732072  0.87580416  0.74587251    -0.78520
Co2267     Co  0.54317420  0.88175531  0.71681854     1.51530
Co2268     Co  0.58394378  0.83325991  0.80202719     1.51690
Co2269     Co  0.58927128  0.85769987  0.71940928     1.51570
Co2270     Co  0.54305521  0.90193621  0.78529485     1.51470
O2271       O  0.56392550  0.86388507  0.76361939    -1.40410
C2272       C  0.51230262  0.94986386  0.75487991     1.11140
C2273       C  0.64320597  0.85824443  0.76957230     1.11230
C2274       C  0.60415722  0.89329993  0.67093939     1.11160
C2275       C  0.59913659  0.90264218  0.82874982     1.11140
O2276       O  0.84853996  0.90666825  0.68713358    -0.78480
O2277       O  0.81203866  0.91899841  0.82100355    -0.78500
O2278       O  0.77394272  0.93522562  0.70726595    -0.78510
O2279       O  0.87180704  0.82899697  0.77631303    -0.78450
O2280       O  0.77479143  0.93307785  0.76651168    -0.78580
O2281       O  0.88121259  0.87108202  0.73846626    -0.78500
O2282       O  0.84460529  0.87570105  0.80932817    -0.78480
O2283       O  0.80481440  0.90207542  0.65505793    -0.78520
C2284       C  0.83369125  0.91204342  0.65797094     1.11210
C2285       C  0.83700330  0.90093159  0.82861754     1.11090
C2286       C  0.76576829  0.94690245  0.73702786     1.11230
C2287       C  0.89165528  0.84882098  0.76096178     1.11110
O2288       O  0.85564251  0.80983193  0.71247632    -0.78480
O2289       O  0.76214291  0.87904796  0.78579730    -0.78560
O2290       O  0.77597160  0.84002564  0.68431055    -0.78490
O2291       O  0.81383184  0.81904730  0.82385395    -0.78470
O2292       O  0.78162124  0.86430847  0.81018636    -0.78530
O2293       O  0.82243170  0.84333553  0.65695245    -0.78490
O2294       O  0.81531752  0.79814139  0.74985641    -0.78450
O2295       O  0.74096199  0.87677185  0.72979059    -0.78520
Co2296     Co  0.85047238  0.85888130  0.70035175     1.51530
Co2297     Co  0.80773108  0.89707450  0.77603686     1.51690
Co2298     Co  0.77608934  0.88694540  0.69680843     1.51570
Co2299     Co  0.82307227  0.84004986  0.77707914     1.51470
O2300       O  0.81279896  0.87003573  0.73239345    -1.40410
C2301       C  0.83878225  0.78861784  0.72968943     1.11140
C2302       C  0.73808458  0.87492334  0.76356156     1.11230
C2303       C  0.79267596  0.83449661  0.65718912     1.11160
C2304       C  0.78951948  0.83840488  0.83141598     1.11140
C2305       C  0.92638733  0.84617132  0.76636926    -0.11620
C2306       C  0.95520805  0.85101245  0.76361184    -0.13170
C2307       C  0.70599867  0.86827652  0.77596724    -0.11620
C2308       C  0.67710236  0.86403646  0.77588058    -0.13090
C2309       C  0.97588514  0.50550830  0.73813019    -0.11620
C2310       C  0.49191963  0.47967580  0.74512844    -0.13170
C2311       C  0.86924024  0.72910450  0.72841919    -0.11620
C2312       C  0.85160296  0.75420295  0.72976195    -0.13170
C2313       C  0.74436849  0.97539016  0.73775526    -0.11620
C2314       C  0.72688235  0.99961668  0.74090002    -0.13170
C2315       C  0.60865518  0.75360812  0.74787126    -0.11620
C2316       C  0.62228377  0.72667898  0.75358444    -0.13170
C2317       C  0.79527166  0.60981936  0.76762988    -0.11620
C2318       C  0.82366731  0.61500273  0.76658264    -0.13170
C2319       C  0.54776823  0.59528412  0.77656619    -0.11620
C2320       C  0.57650450  0.59939622  0.77427314    -0.13170
C2321       C  0.51640741  0.84276238  0.87666405    -0.11620
C2322       C  0.00135153  0.84111065  0.90402522    -0.13170
C2323       C  0.51629917  0.83936186  0.63455663    -0.11620
C2324       C  0.99833778  0.84013299  0.60841860    -0.13170
C2325       C  0.87606518  0.90370551  0.88436735    -0.11620
C2326       C  0.85713577  0.90660229  0.85935127    -0.13170
C2327       C  0.85339559  0.91724572  0.62696494    -0.11620
C2328       C  0.87491250  0.91073021  0.60636153    -0.13170
C2329       C  0.74877185  0.83965910  0.88575467    -0.11620
C2330       C  0.76907242  0.83393143  0.86283303    -0.13170
C2331       C  0.77396036  0.82929478  0.62469273    -0.11620
C2332       C  0.75142129  0.83531360  0.60374114    -0.13170
C2333       C  0.61643944  0.91917412  0.85688261    -0.11620
C2334       C  0.63095496  0.91886511  0.88559194    -0.13170
C2335       C  0.61900759  0.91051693  0.64017473    -0.11620
C2336       C  0.63352511  0.91065444  0.61151969    -0.13170
C2337       C  0.82560326  0.87193532  0.49154696    -0.11620
C2338       C  0.79684801  0.86915740  0.99064759    -0.13170
C2339       C  0.57504547  0.87693969  0.48413342    -0.11620
C2340       C  0.54677746  0.88533778  0.48525824    -0.13170
C2341       C  0.74814305  0.66141777  0.85138161    -0.11620
C2342       C  0.76519393  0.66370935  0.87802438    -0.13170
C2343       C  0.75529013  0.65482200  0.62004048    -0.11620
C2344       C  0.73759014  0.65496445  0.64585820    -0.13170
C2345       C  0.87673240  0.58641848  0.89288226    -0.11620
C2346       C  0.89475206  0.58106767  0.86801377    -0.13170
C2347       C  0.90656699  0.58709753  0.62572089    -0.11620
C2348       C  0.88473821  0.59508626  0.60427998    -0.13170
C2349       C  0.76152143  0.50874593  0.49593939    -0.11620
C2350       C  0.74624961  0.98319282  0.99372720    -0.13170
C2351       C  0.88339104  0.76417575  0.49859908    -0.11620
C2352       C  0.86737455  0.73904310  0.49936299    -0.13170
C2353       C  0.51097605  0.65602013  0.87506219    -0.11620
C2354       C  0.99526512  0.65729075  0.84705458    -0.13170
C2355       C  0.97384464  0.67040604  0.63276910    -0.11620
C2356       C  0.49376332  0.66417166  0.60973595    -0.13170
C2357       C  0.64110581  0.58722233  0.88229172    -0.11620
C2358       C  0.62502489  0.58619465  0.90913288    -0.13170
C2359       C  0.61190219  0.58777530  0.61345986    -0.11620
C2360       C  0.62922179  0.58635397  0.64003917    -0.13170
C2361       C  0.97932623  0.49605634  0.50660013    -0.11620
C2362       C  0.49640900  0.52018427  0.50231287    -0.13170
C2363       C  0.94700010  0.63184668  0.99033891    -0.11620
C2364       C  0.91861343  0.62949214  0.99545947    -0.13170
C2365       C  0.67002791  0.63214424  0.49972665    -0.11620
C2366       C  0.69875763  0.62535219  0.50126850    -0.13170
C2367       C  0.60936507  0.74153107  0.01065672    -0.11620
C2368       C  0.62974464  0.76290784  0.00981379    -0.13170
loop_ 
_geom_bond_atom_site_label_1 
_geom_bond_atom_site_label_2 
_geom_bond_distance 
_geom_bond_site_symmetry_2 
_ccdc_geom_bond_type 
O1          Co21   1.994       .  S
O1          C305   1.267       .  A
O2        Co1206   1.992       .  S
O2           C10   1.248       .  A
O3          Co23   1.990       .  S
O3           C11   1.279       .  A
O4          Co24   1.912       .  S
O4           C12   1.274       .  A
O5          Co22   2.024       .  S
O5           C11   1.286       .  A
O6          Co21   2.101       .  S
O6           C12   1.301       .  A
O7        Co1208   1.965       .  S
O7          C306   1.243   1_554  A
O8          Co23   1.978       .  S
O8            C9   1.270       .  A
C9          O297   1.267       .  A
C9          C295   1.439       .  S
C10         O303   1.243       .  A
C10         C291   1.406       .  S
C11         C281   1.443       .  S
C12         C284   1.451   1_455  S
O13         Co21   1.886       .  S
O13          C26   1.264       .  A
O14         Co22   1.983       .  S
O14          C27   1.271       .  A
O15         Co23   2.010       .  S
O15         C324   1.268       .  A
O16         Co24   2.120       .  S
O16          C29   1.309   1_554  A
O17         Co22   1.892       .  S
O17         C325   1.285       .  A
O18         Co21   1.990       .  S
O18          C28   1.261   1_554  A
O19         Co24   2.093       .  S
O19          C26   1.297       .  A
O20         Co23   1.972       .  S
O20          C27   1.265       .  A
Co21         O25   1.967   1_554  S
Co22       O1186   1.992   1_455  S
Co22        O321   1.904       .  S
Co23        O321   2.010       .  S
Co24       O1191   1.965   1_455  S
Co24         O25   2.023   1_554  S
O25        Co318   1.904       .  S
O25        Co319   2.010       .  S
C26         C287   1.430       .  S
C27         C286   1.416       .  S
C28         O311   1.268       .  A
C28         C293   1.430       .  S
C29         O313   1.285       .  A
C29         C290   1.445   1_456  S
O30         Co50   2.078       .  S
O30          C38   1.306   1_554  A
O31         Co51   1.987       .  S
O31         C335   1.223       .  A
O32         Co52   2.119       .  S
O32          C40   1.310       .  A
O33         Co53   1.910       .  S
O33          C41   1.289       .  A
O34         Co51   1.882       .  S
O34          C40   1.275       .  A
O35         Co50   2.092       .  S
O35          C41   1.313       .  A
O36         Co53   1.991       .  S
O36          C39   1.227       .  A
O37         Co52   1.921       .  S
O37         C334   1.284       .  A
C38         O333   1.284       .  A
C38         C277   1.445       .  S
C39         O327   1.223   1_554  A
C39         C588   1.409   1_554  S
C40         C273   1.439       .  S
C41         C276   1.456       .  S
O42         Co50   1.971       .  S
O42          C55   1.267       .  A
O43         Co51   1.990       .  S
O43          C56   1.269       .  A
O44         Co52   1.967       .  S
O44         C353   1.242       .  A
O45         Co53   1.975       .  S
O45         C354   1.284       .  A
O46         Co51   2.053       .  S
O46          C58   1.295       .  A
O47         Co50   1.987       .  S
O47          C57   1.246       .  A
O48         Co53   2.012       .  S
O48          C55   1.269       .  A
O49         Co52   1.981       .  S
O49          C56   1.267       .  A
Co50         O54   2.087   1_554  S
Co51        O350   1.858       .  S
Co52        O350   2.053       .  S
Co53         O54   1.982   1_554  S
O54        Co347   1.858       .  S
O54        Co348   2.053       .  S
C55         C271   1.440       .  S
C56         C270   1.436       .  S
C57         O340   1.242   1_554  A
C57         C294   1.430       .  S
C58         O341   1.284       .  A
C58         C576   1.443       .  S
O59         Co79   1.984       .  S
O59         C363   1.260       .  A
O60         Co80   1.976       .  S
O60          C68   1.239       .  A
O61         Co81   1.993       .  S
O61          C69   1.278       .  A
O62         Co82   1.903       .  S
O62          C70   1.274       .  A
O63         Co80   2.045       .  S
O63          C69   1.292       .  A
O64         Co79   2.108       .  S
O64          C70   1.305       .  A
O65         Co82   1.983       .  S
O65         C364   1.239   1_554  A
O66         Co81   1.986       .  S
O66          C67   1.268       .  A
C67         O355   1.260       .  A
C67         C296   1.440       .  S
C68         O361   1.239       .  A
C68         C266   1.405       .  S
C69         C257   1.459       .  S
C70         C260   1.448       .  S
O71         Co79   1.896       .  S
O71          C84   1.259       .  A
O72         Co80   1.982       .  S
O72          C85   1.267       .  A
O73         Co81   2.009       .  S
O73          C86   1.273       .  A
O74         Co82   2.137       .  S
O74         C383   1.316   1_554  A
O75         Co80   1.881       .  S
O75          C87   1.286       .  A
O76         Co79   1.980       .  S
O76         C382   1.265   1_554  A
O77         Co82   2.126       .  S
O77          C84   1.305       .  A
O78         Co81   2.000       .  S
O78          C85   1.269       .  A
Co79        O379   1.975   1_554  S
Co80         O83   1.915       .  S
Co81         O83   2.013       .  S
Co82        O379   2.032   1_554  S
O83        Co375   1.975       .  S
O83        Co378   2.032       .  S
C84         C264   1.459       .  S
C85         C262   1.439       .  S
C86         O372   1.265       .  A
C86         C563   1.427       .  S
C87         O370   1.316       .  A
C87         C278   1.445       .  S
O88        Co108   2.008       .  S
O88          C96   1.269       .  A
O89        Co109   1.983       .  S
O89         C393   1.243       .  A
O90        Co110   1.969       .  S
O90          C98   1.272       .  A
O91        Co111   1.901       .  S
O91          C99   1.278       .  A
O92        Co109   2.019       .  S
O92          C98   1.285       .  A
O93        Co108   2.074       .  S
O93          C99   1.297       .  A
O94        Co111   1.977       .  S
O94          C97   1.244   1_554  A
O95        Co110   1.976       .  S
O95         C392   1.266       .  A
C96         O391   1.266   1_554  A
C96         C881   1.443       .  S
C97         O385   1.243       .  A
C97         C265   1.406       .  S
C98         C253   1.426       .  S
C99         C256   1.432       .  S
O100       Co108   1.884       .  S
O100        C113   1.265       .  A
O101       Co109   1.966       .  S
O101        C114   1.266       .  A
O102       Co110   2.008       .  S
O102        C411   1.268       .  A
O103       Co111   2.143       .  S
O103        C116   1.317   1_554  A
O104       Co109   1.874       .  S
O104        C412   1.281       .  A
O105       Co108   1.982       .  S
O105        C115   1.260   1_554  A
O106       Co111   2.099       .  S
O106        C113   1.299       .  A
O107       Co110   1.977       .  S
O107        C114   1.266       .  A
Co108       O112   1.951   1_554  S
Co109       O408   1.896       .  S
Co110       O408   2.002       .  S
Co111       O112   2.021   1_554  S
O112       Co405   1.896       .  S
O112       Co406   2.002       .  S
C113        C252   1.435       .  S
C114        C250   1.407       .  S
C115        O398   1.268       .  A
C115       C1452   1.427       .  S
C116        O400   1.281       .  A
C116        C279   1.443       .  S
O117       Co137   1.871       .  S
O117        C125   1.259       .  A
O118       Co138   1.981       .  S
O118        C126   1.273       .  A
O119       Co139   2.104       .  S
O119        C127   1.305       .  A
O120       Co140   1.981       .  S
O120        C128   1.259       .  A
O121       Co138   1.880       .  S
O121        C127   1.282       .  A
O122       Co137   1.980       .  S
O122        C128   1.259       .  A
O123       Co140   2.013       .  S
O123        C126   1.277       .  A
O124       Co139   2.117       .  S
O124        C125   1.303       .  A
C125        C272   1.431       .  S
C126        C269   1.437       .  S
C127        C244   1.435       .  S
C128        C245   1.411       .  S
O129       Co137   1.970       .  S
O129        C142   1.263       .  A
O130       Co138   1.993       .  S
O130        C143   1.252       .  A
O131       Co139   1.890       .  S
O131        C144   1.270       .  A
O132       Co140   1.959       .  S
O132        C145   1.265       .  A
O133       Co138   2.020       .  S
O133        C145   1.283       .  A
O134       Co137   2.093       .  S
O134        C144   1.297       .  A
O135       Co140   1.974       .  S
O135        C142   1.267       .  A
O136       Co139   1.988       .  S
O136        C143   1.252       .  A
Co137       O141   1.955       .  S
Co138       O141   1.896       .  S
Co139       O141   2.011       .  S
Co140       O141   1.997       .  S
C142        C834   1.414   1_545  S
C143        C248   1.428       .  S
C144        C288   1.433       .  S
C145        C285   1.426       .  S
O146       Co166   1.941       .  S
O146        C154   1.237       .  A
O147       Co167   1.904       .  S
O147        C155   1.283       .  A
O148       Co168   2.035       .  S
O148        C156   1.277       .  A
O149       Co169   1.995       .  S
O149        C157   1.260       .  A
O150       Co167   1.983       .  S
O150        C156   1.276       .  A
O151       Co166   1.949       .  S
O151        C157   1.252       .  A
O152       Co169   2.110       .  S
O152        C155   1.303       .  A
O153       Co168   2.065       .  S
O153        C154   1.263       .  A
C154        C275   1.452       .  S
C155        C274   1.437       .  S
C156        C237   1.463       .  S
C157        C246   1.410       .  S
O158       Co166   2.021       .  S
O158        C171   1.265       .  A
O159      Co1351   2.032       .  S
O159        C172   1.276   1_655  A
O160       Co168   1.949       .  S
O160        C173   1.256       .  A
O161       Co169   1.978       .  S
O161        C174   1.248       .  A
O162       Co167   2.031       .  S
O162        C174   1.249       .  A
O163       Co166   2.078       .  S
O163        C173   1.285       .  A
O164       Co169   1.986       .  S
O164        C171   1.266       .  A
O165      Co1352   1.954   1_455  S
O165        C172   1.261       .  A
Co166       O170   2.066       .  S
Co167      O1343   2.032       .  S
Co167       O170   2.016       .  S
Co168      O1349   1.954       .  S
Co168       O170   2.089       .  S
Co169       O170   2.125       .  S
C171        C239   1.459       .  S
C172        C247   1.424       .  S
C173        C283   1.446       .  S
C174        C282   1.438       .  S
O175       Co195   1.879       .  S
O175        C183   1.269       .  A
O176       Co196   1.952       .  S
O176        C184   1.261       .  A
O177       Co197   2.015       .  S
O177        C185   1.274       .  A
O178      Co1382   2.000       .  S
O178        C186   1.251       .  A
O179       Co196   1.965       .  S
O179        C185   1.263       .  A
O180      Co1379   2.005       .  S
O180        C186   1.254       .  A
O181       Co198   2.013       .  S
O181        C184   1.279       .  A
O182       Co197   2.112       .  S
O182        C183   1.302       .  A
C183        C251   1.436       .  S
C184        C249   1.416       .  S
C185        C243   1.433       .  S
C186        C234   1.443       .  S
O187       Co195   2.136       .  S
O187        C200   1.313       .  A
O188       Co196   1.993       .  S
O188        C201   1.261       .  A
O189       Co197   1.878       .  S
O189        C202   1.266       .  A
O190       Co198   1.986       .  S
O190        C203   1.278       .  A
O191       Co196   2.008       .  S
O191        C203   1.278       .  A
O192       Co195   2.135       .  S
O192        C202   1.313       .  A
O193       Co198   1.900       .  S
O193        C200   1.285       .  A
O194       Co197   1.997       .  S
O194        C201   1.266       .  A
Co195      O1364   2.005       .  S
Co195       O199   2.018       .  S
Co196       O199   1.995       .  S
Co197       O199   1.967       .  S
Co198      O1362   2.000   1_455  S
Co198       O199   1.921       .  S
C200        C830   1.466   1_455  S
C201        C236   1.436       .  S
C202        C263   1.459       .  S
C203        C261   1.437       .  S
O204       Co224   1.947       .  S
O204        C212   1.241       .  A
O205       Co225   1.908       .  S
O205        C213   1.260       .  A
O206       Co226   1.970       .  S
O206        C214   1.253       .  A
O207       Co227   2.041       .  S
O207        C215   1.277       .  A
O208       Co225   1.964       .  S
O208        C214   1.252       .  A
O209       Co224   1.960       .  S
O209        C215   1.258       .  A
O210       Co227   2.088       .  S
O210        C213   1.283       .  A
O211       Co226   2.041       .  S
O211        C212   1.267       .  A
C212        C255   1.425       .  S
C213        C254   1.423       .  S
C214        C241   1.416       .  S
C215        C233   1.440       .  S
O216       Co224   1.993       .  S
O216        C229   1.268       .  A
O217       Co225   2.058       .  S
O217        C230   1.294       .  A
O218       Co226   1.936       .  S
O218        C231   1.244       .  A
O219       Co227   1.943       .  S
O219        C232   1.284       .  A
O220       Co225   2.111       .  S
O220        C232   1.306       .  A
O221       Co224   2.081       .  S
O221        C231   1.283       .  A
O222       Co227   2.004       .  S
O222        C229   1.283       .  A
O223       Co226   1.945       .  S
O223        C230   1.255       .  A
Co224       O228   2.010       .  S
Co225       O228   1.975       .  S
Co226       O228   2.072       .  S
Co227       O228   2.039       .  S
C229        C240   1.453       .  S
C230        C235   1.432       .  S
C231        C259   1.440       .  S
C232        C258   1.452       .  S
C233        C234   1.211       .  T
C235        C236   1.205       .  T
C237       C1422   1.224   1_545  T
C238        C792   1.466   1_655  S
C238       C1421   1.224   1_565  T
C239        C240   1.220       .  T
C241        C242   1.196       .  T
C242        C734   1.414       .  S
C243        C244   1.206       .  T
C245        C246   1.192       .  T
C247        C248   1.201       .  T
C249       C1434   1.193       .  T
C250       C1433   1.193       .  T
C251       C1436   1.207   1_455  T
C252       C1435   1.207       .  T
C253        C254   1.201       .  T
C255        C256   1.203       .  T
C257        C258   1.219       .  T
C259        C260   1.213       .  T
C261        C262   1.209       .  T
C263        C264   1.222       .  T
C265        C562   1.191       .  T
C266        C561   1.191       .  T
C267        C382   1.427       .  S
C267        C268   1.202       .  T
C268       C1299   1.427       .  S
C269        C270   1.208       .  T
C271        C272   1.208       .  T
C273        C274   1.208       .  T
C275        C276   1.218       .  T
C277       C1166   1.214   1_545  T
C278       C1165   1.214       .  T
C279        C280   1.212       .  T
C280        C354   1.443   1_556  S
C281       C1466   1.211   1_455  T
C282       C1465   1.211       .  T
C283       C1468   1.215       .  T
C284       C1467   1.215       .  T
C285        C286   1.199       .  T
C287        C288   1.204       .  T
C289        C688   1.443       .  S
C289       C1474   1.213   1_565  T
C290       C1473   1.213   1_545  T
C291        C292   1.191       .  T
C292        C335   1.409       .  S
C293        C294   1.205   1_556  T
C295        C296   1.210       .  T
O297       Co317   1.994       .  S
O298      Co1502   1.992       .  S
O298        C306   1.248       .  A
O299       Co319   1.990       .  S
O299        C307   1.279       .  A
O300       Co320   1.912       .  S
O300        C308   1.274       .  A
O301       Co318   2.024       .  S
O301        C307   1.286       .  A
O302       Co317   2.101       .  S
O302        C308   1.301       .  A
O303      Co1504   1.965       .  S
O304       Co319   1.978       .  S
O304        C305   1.270   1_556  A
C305        C591   1.439       .  S
C306        C587   1.406       .  S
C307        C577   1.443       .  S
C308        C580   1.451   1_455  S
O309       Co317   1.886       .  S
O309        C322   1.264       .  A
O310       Co318   1.983       .  S
O310        C323   1.271       .  A
O311       Co319   2.010       .  S
O312       Co320   2.120       .  S
O312        C325   1.309       .  A
O313       Co318   1.892       .  S
O314       Co317   1.990       .  S
O314        C324   1.261       .  A
O315       Co320   2.093       .  S
O315        C322   1.297       .  A
O316       Co319   1.972       .  S
O316        C323   1.265       .  A
Co317       O321   1.967       .  S
Co318      O1482   1.992   1_455  S
Co320      O1487   1.965   1_455  S
Co320       O321   2.023       .  S
C322        C583   1.430       .  S
C323        C582   1.416       .  S
C324        C589   1.430       .  S
C325        C586   1.445   1_455  S
O326       Co346   2.078       .  S
O326        C334   1.306       .  A
O327       Co347   1.987       .  S
O328       Co348   2.119       .  S
O328        C336   1.310       .  A
O329       Co349   1.910       .  S
O329        C337   1.289       .  A
O330       Co347   1.882       .  S
O330        C336   1.275       .  A
O331       Co346   2.092       .  S
O331        C337   1.313       .  A
O332       Co349   1.991       .  S
O332        C335   1.227       .  A
O333       Co348   1.921       .  S
C334        C573   1.445       .  S
C336        C569   1.439       .  S
C337        C572   1.456       .  S
O338       Co346   1.971       .  S
O338        C351   1.267       .  A
O339       Co347   1.990       .  S
O339        C352   1.269       .  A
O340       Co348   1.967       .  S
O341       Co349   1.975       .  S
O342       Co347   2.053       .  S
O342        C354   1.295   1_556  A
O343       Co346   1.987       .  S
O343        C353   1.246       .  A
O344       Co349   2.012       .  S
O344        C351   1.269       .  A
O345       Co348   1.981       .  S
O345        C352   1.267       .  A
Co346       O350   2.087       .  S
Co349       O350   1.982       .  S
C351        C567   1.440       .  S
C352        C566   1.436       .  S
C353        C590   1.430       .  S
O355       Co375   1.984       .  S
O356       Co376   1.976       .  S
O356        C364   1.239       .  A
O357       Co377   1.993       .  S
O357        C365   1.278       .  A
O358       Co378   1.903       .  S
O358        C366   1.274       .  A
O359       Co376   2.045       .  S
O359        C365   1.292       .  A
O360       Co375   2.108       .  S
O360        C366   1.305       .  A
O361       Co378   1.983       .  S
O362       Co377   1.986       .  S
O362        C363   1.268   1_556  A
C363        C592   1.440       .  S
C364        C562   1.405       .  S
C365        C553   1.459       .  S
C366        C556   1.448       .  S
O367       Co375   1.896       .  S
O367        C380   1.259       .  A
O368       Co376   1.982       .  S
O368        C381   1.267       .  A
O369       Co377   2.009       .  S
O369        C382   1.273       .  A
O370       Co378   2.137       .  S
O371       Co376   1.881       .  S
O371        C383   1.286       .  A
O372       Co375   1.980       .  S
O373       Co378   2.126       .  S
O373        C380   1.305       .  A
O374       Co377   2.000       .  S
O374        C381   1.269       .  A
Co376       O379   1.915       .  S
Co377       O379   2.013       .  S
C380        C560   1.459       .  S
C381        C558   1.439       .  S
C383        C574   1.446       .  S
O384       Co404   2.008       .  S
O384        C392   1.269       .  A
O385       Co405   1.983       .  S
O386       Co406   1.969       .  S
O386        C394   1.272       .  A
O387       Co407   1.901       .  S
O387        C395   1.278       .  A
O388       Co405   2.019       .  S
O388        C394   1.285       .  A
O389       Co404   2.074       .  S
O389        C395   1.297       .  A
O390       Co407   1.977       .  S
O390        C393   1.244       .  A
O391       Co406   1.976       .  S
C392       C1177   1.443       .  S
C393        C561   1.406       .  S
C394        C549   1.426       .  S
C395        C552   1.432       .  S
O396       Co404   1.884       .  S
O396        C409   1.265       .  A
O397       Co405   1.966       .  S
O397        C410   1.266       .  A
O398       Co406   2.008       .  S
O399       Co407   2.143       .  S
O399        C412   1.317       .  A
O400       Co405   1.874       .  S
O401       Co404   1.982       .  S
O401        C411   1.260       .  A
O402       Co407   2.099       .  S
O402        C409   1.299       .  A
O403       Co406   1.977       .  S
O403        C410   1.266       .  A
Co404       O408   1.951       .  S
Co407       O408   2.021       .  S
C409        C548   1.435       .  S
C410        C546   1.407       .  S
C411       C1748   1.427       .  S
C412        C575   1.443       .  S
O413       Co433   1.871       .  S
O413        C421   1.259       .  A
O414       Co434   1.981       .  S
O414        C422   1.273       .  A
O415       Co435   2.104       .  S
O415        C423   1.305       .  A
O416       Co436   1.981       .  S
O416        C424   1.259       .  A
O417       Co434   1.880       .  S
O417        C423   1.282       .  A
O418       Co433   1.980       .  S
O418        C424   1.259       .  A
O419       Co436   2.013       .  S
O419        C422   1.277       .  A
O420       Co435   2.117       .  S
O420        C421   1.303       .  A
C421        C568   1.431       .  S
C422        C565   1.437       .  S
C423        C540   1.435       .  S
C424        C541   1.411       .  S
O425       Co433   1.970       .  S
O425        C438   1.263       .  A
O426       Co434   1.993       .  S
O426        C439   1.252       .  A
O427       Co435   1.890       .  S
O427        C440   1.270       .  A
O428       Co436   1.959       .  S
O428        C441   1.265       .  A
O429       Co434   2.020       .  S
O429        C441   1.283       .  A
O430       Co433   2.093       .  S
O430        C440   1.297       .  A
O431       Co436   1.974       .  S
O431        C438   1.267       .  A
O432       Co435   1.988       .  S
O432        C439   1.252       .  A
Co433       O437   1.955       .  S
Co434       O437   1.896       .  S
Co435       O437   2.011       .  S
Co436       O437   1.997       .  S
C438       C1130   1.414   1_545  S
C439        C544   1.428       .  S
C440        C584   1.433       .  S
C441        C581   1.426       .  S
O442       Co462   1.941       .  S
O442        C450   1.237       .  A
O443       Co463   1.904       .  S
O443        C451   1.283       .  A
O444       Co464   2.035       .  S
O444        C452   1.277       .  A
O445       Co465   1.995       .  S
O445        C453   1.260       .  A
O446       Co463   1.983       .  S
O446        C452   1.276       .  A
O447       Co462   1.949       .  S
O447        C453   1.252       .  A
O448       Co465   2.110       .  S
O448        C451   1.303       .  A
O449       Co464   2.065       .  S
O449        C450   1.263       .  A
C450        C571   1.452       .  S
C451        C570   1.437       .  S
C452        C533   1.463       .  S
C453        C542   1.410       .  S
O454       Co462   2.021       .  S
O454        C467   1.265       .  A
O455      Co1647   2.032       .  S
O455        C468   1.276   1_655  A
O456       Co464   1.949       .  S
O456        C469   1.256       .  A
O457       Co465   1.978       .  S
O457        C470   1.248       .  A
O458       Co463   2.031       .  S
O458        C470   1.249       .  A
O459       Co462   2.078       .  S
O459        C469   1.285       .  A
O460       Co465   1.986       .  S
O460        C467   1.266       .  A
O461      Co1648   1.954   1_455  S
O461        C468   1.261       .  A
Co462       O466   2.066       .  S
Co463      O1639   2.032       .  S
Co463       O466   2.016       .  S
Co464      O1645   1.954       .  S
Co464       O466   2.089       .  S
Co465       O466   2.125       .  S
C467        C535   1.459       .  S
C468        C543   1.424       .  S
C469        C579   1.446       .  S
C470        C578   1.438       .  S
O471       Co491   1.879       .  S
O471        C479   1.269       .  A
O472       Co492   1.952       .  S
O472        C480   1.261       .  A
O473       Co493   2.015       .  S
O473        C481   1.274       .  A
O474      Co1678   2.000       .  S
O474        C482   1.251       .  A
O475       Co492   1.965       .  S
O475        C481   1.263       .  A
O476      Co1675   2.005       .  S
O476        C482   1.254       .  A
O477       Co494   2.013       .  S
O477        C480   1.279       .  A
O478       Co493   2.112       .  S
O478        C479   1.302       .  A
C479        C547   1.436       .  S
C480        C545   1.416       .  S
C481        C539   1.433       .  S
C482        C530   1.443       .  S
O483       Co491   2.136       .  S
O483        C496   1.313       .  A
O484       Co492   1.993       .  S
O484        C497   1.261       .  A
O485       Co493   1.878       .  S
O485        C498   1.266       .  A
O486       Co494   1.986       .  S
O486        C499   1.278       .  A
O487       Co492   2.008       .  S
O487        C499   1.278       .  A
O488       Co491   2.135       .  S
O488        C498   1.313       .  A
O489       Co494   1.900       .  S
O489        C496   1.285       .  A
O490       Co493   1.997       .  S
O490        C497   1.266       .  A
Co491      O1660   2.005       .  S
Co491       O495   2.018       .  S
Co492       O495   1.995       .  S
Co493       O495   1.967       .  S
Co494      O1658   2.000   1_455  S
Co494       O495   1.921       .  S
C496       C1126   1.466   1_455  S
C497        C532   1.436       .  S
C498        C559   1.459       .  S
C499        C557   1.437       .  S
O500       Co520   1.947       .  S
O500        C508   1.241       .  A
O501       Co521   1.908       .  S
O501        C509   1.260       .  A
O502       Co522   1.970       .  S
O502        C510   1.253       .  A
O503       Co523   2.041       .  S
O503        C511   1.277       .  A
O504       Co521   1.964       .  S
O504        C510   1.252       .  A
O505       Co520   1.960       .  S
O505        C511   1.258       .  A
O506       Co523   2.088       .  S
O506        C509   1.283       .  A
O507       Co522   2.041       .  S
O507        C508   1.267       .  A
C508        C551   1.425       .  S
C509        C550   1.423       .  S
C510        C537   1.416       .  S
C511        C529   1.440       .  S
O512       Co520   1.993       .  S
O512        C525   1.268       .  A
O513       Co521   2.058       .  S
O513        C526   1.294       .  A
O514       Co522   1.936       .  S
O514        C527   1.244       .  A
O515       Co523   1.943       .  S
O515        C528   1.284       .  A
O516       Co521   2.111       .  S
O516        C528   1.306       .  A
O517       Co520   2.081       .  S
O517        C527   1.283       .  A
O518       Co523   2.004       .  S
O518        C525   1.283       .  A
O519       Co522   1.945       .  S
O519        C526   1.255       .  A
Co520       O524   2.010       .  S
Co521       O524   1.975       .  S
Co522       O524   2.072       .  S
Co523       O524   2.039       .  S
C525        C536   1.453       .  S
C526        C531   1.432       .  S
C527        C555   1.440       .  S
C528        C554   1.452       .  S
C529        C530   1.211       .  T
C531        C532   1.205       .  T
C533       C1718   1.224   1_545  T
C534       C1088   1.466   1_655  S
C534       C1717   1.224   1_565  T
C535        C536   1.220       .  T
C537        C538   1.196       .  T
C538       C1030   1.414       .  S
C539        C540   1.206       .  T
C541        C542   1.192       .  T
C543        C544   1.201       .  T
C545       C1730   1.193       .  T
C546       C1729   1.193       .  T
C547       C1732   1.207   1_455  T
C548       C1731   1.207       .  T
C549        C550   1.201       .  T
C551        C552   1.203       .  T
C553        C554   1.219       .  T
C555        C556   1.213       .  T
C557        C558   1.209       .  T
C559        C560   1.222       .  T
C563        C564   1.202       .  T
C564       C1595   1.427       .  S
C565        C566   1.208       .  T
C567        C568   1.208       .  T
C569        C570   1.208       .  T
C571        C572   1.218       .  T
C573        C870   1.214   1_545  T
C574        C869   1.214       .  T
C575        C576   1.212       .  T
C577       C1762   1.211   1_455  T
C578       C1761   1.211       .  T
C579       C1764   1.215       .  T
C580       C1763   1.215       .  T
C581        C582   1.199       .  T
C583        C584   1.204       .  T
C585        C984   1.443       .  S
C585       C1770   1.213   1_565  T
C586       C1769   1.213   1_545  T
C587        C588   1.191       .  T
C589        C590   1.205       .  T
C591        C592   1.210       .  T
O593       Co613   1.994       .  S
O593        C897   1.267       .  A
O594      Co1798   1.992       .  S
O594        C602   1.248       .  A
O595       Co615   1.990       .  S
O595        C603   1.279       .  A
O596       Co616   1.912       .  S
O596        C604   1.274       .  A
O597       Co614   2.024       .  S
O597        C603   1.286       .  A
O598       Co613   2.101       .  S
O598        C604   1.301       .  A
O599      Co1800   1.965       .  S
O599        C898   1.243   1_554  A
O600       Co615   1.978       .  S
O600        C601   1.270       .  A
C601        O889   1.267       .  A
C601        C887   1.439       .  S
C602        O895   1.243       .  A
C602        C883   1.406       .  S
C603        C873   1.443       .  S
C604        C876   1.451   1_455  S
O605       Co613   1.886       .  S
O605        C618   1.264       .  A
O606       Co614   1.983       .  S
O606        C619   1.271       .  A
O607       Co615   2.010       .  S
O607        C916   1.268       .  A
O608       Co616   2.120       .  S
O608        C621   1.309   1_554  A
O609       Co614   1.892       .  S
O609        C917   1.285       .  A
O610       Co613   1.990       .  S
O610        C620   1.261   1_554  A
O611       Co616   2.093       .  S
O611        C618   1.297       .  A
O612       Co615   1.972       .  S
O612        C619   1.265       .  A
Co613       O617   1.967   1_554  S
Co614      O1778   1.992   1_455  S
Co614       O913   1.904       .  S
Co615       O913   2.010       .  S
Co616      O1783   1.965   1_455  S
Co616       O617   2.023   1_554  S
O617       Co910   1.904       .  S
O617       Co911   2.010       .  S
C618        C879   1.430       .  S
C619        C878   1.416       .  S
C620        O903   1.268       .  A
C620        C885   1.430       .  S
C621        O905   1.285       .  A
C621        C882   1.445   1_456  S
O622       Co642   2.078       .  S
O622        C630   1.306   1_554  A
O623       Co643   1.987       .  S
O623        C927   1.223       .  A
O624       Co644   2.119       .  S
O624        C632   1.310       .  A
O625       Co645   1.910       .  S
O625        C633   1.289       .  A
O626       Co643   1.882       .  S
O626        C632   1.275       .  A
O627       Co642   2.092       .  S
O627        C633   1.313       .  A
O628       Co645   1.991       .  S
O628        C631   1.227       .  A
O629       Co644   1.921       .  S
O629        C926   1.284       .  A
C630        O925   1.284       .  A
C630        C869   1.445       .  S
C631        O919   1.223   1_554  A
C631       C1180   1.409   1_554  S
C632        C865   1.439       .  S
C633        C868   1.456       .  S
O634       Co642   1.971       .  S
O634        C647   1.267       .  A
O635       Co643   1.990       .  S
O635        C648   1.269       .  A
O636       Co644   1.967       .  S
O636        C945   1.242       .  A
O637       Co645   1.975       .  S
O637        C946   1.284       .  A
O638       Co643   2.053       .  S
O638        C650   1.295       .  A
O639       Co642   1.987       .  S
O639        C649   1.246       .  A
O640       Co645   2.012       .  S
O640        C647   1.269       .  A
O641       Co644   1.981       .  S
O641        C648   1.267       .  A
Co642       O646   2.087   1_554  S
Co643       O942   1.858       .  S
Co644       O942   2.053       .  S
Co645       O646   1.982   1_554  S
O646       Co939   1.858       .  S
O646       Co940   2.053       .  S
C647        C863   1.440       .  S
C648        C862   1.436       .  S
C649        O932   1.242   1_554  A
C649        C886   1.430       .  S
C650        O933   1.284       .  A
C650       C1168   1.443       .  S
O651       Co671   1.984       .  S
O651        C955   1.260       .  A
O652       Co672   1.976       .  S
O652        C660   1.239       .  A
O653       Co673   1.993       .  S
O653        C661   1.278       .  A
O654       Co674   1.903       .  S
O654        C662   1.274       .  A
O655       Co672   2.045       .  S
O655        C661   1.292       .  A
O656       Co671   2.108       .  S
O656        C662   1.305       .  A
O657       Co674   1.983       .  S
O657        C956   1.239   1_554  A
O658       Co673   1.986       .  S
O658        C659   1.268       .  A
C659        O947   1.260       .  A
C659        C888   1.440       .  S
C660        O953   1.239       .  A
C660        C858   1.405       .  S
C661        C849   1.459       .  S
C662        C852   1.448       .  S
O663       Co671   1.896       .  S
O663        C676   1.259       .  A
O664       Co672   1.982       .  S
O664        C677   1.267       .  A
O665       Co673   2.009       .  S
O665        C678   1.273       .  A
O666       Co674   2.137       .  S
O666        C975   1.316   1_554  A
O667       Co672   1.881       .  S
O667        C679   1.286       .  A
O668       Co671   1.980       .  S
O668        C974   1.265   1_554  A
O669       Co674   2.126       .  S
O669        C676   1.305       .  A
O670       Co673   2.000       .  S
O670        C677   1.269       .  A
Co671       O971   1.975   1_554  S
Co672       O675   1.915       .  S
Co673       O675   2.013       .  S
Co674       O971   2.032   1_554  S
O675       Co967   1.975       .  S
O675       Co970   2.032       .  S
C676        C856   1.459       .  S
C677        C854   1.439       .  S
C678        O964   1.265       .  A
C678       C1155   1.427       .  S
C679        O962   1.316       .  A
C679        C870   1.446       .  S
O680       Co700   2.008       .  S
O680        C688   1.269       .  A
O681       Co701   1.983       .  S
O681        C985   1.243       .  A
O682       Co702   1.969       .  S
O682        C690   1.272       .  A
O683       Co703   1.901       .  S
O683        C691   1.278       .  A
O684       Co701   2.019       .  S
O684        C690   1.285       .  A
O685       Co700   2.074       .  S
O685        C691   1.297       .  A
O686       Co703   1.977       .  S
O686        C689   1.244   1_554  A
O687       Co702   1.976       .  S
O687        C984   1.266       .  A
C688        O983   1.266   1_554  A
C689        O977   1.243       .  A
C689        C857   1.406       .  S
C690        C845   1.426       .  S
C691        C848   1.432       .  S
O692       Co700   1.884       .  S
O692        C705   1.265       .  A
O693       Co701   1.966       .  S
O693        C706   1.266       .  A
O694       Co702   2.008       .  S
O694       C1003   1.268       .  A
O695       Co703   2.143       .  S
O695        C708   1.317   1_554  A
O696       Co701   1.874       .  S
O696       C1004   1.281       .  A
O697       Co700   1.982       .  S
O697        C707   1.260   1_554  A
O698       Co703   2.099       .  S
O698        C705   1.299       .  A
O699       Co702   1.977       .  S
O699        C706   1.266       .  A
Co700       O704   1.951   1_554  S
Co701      O1000   1.896       .  S
Co702      O1000   2.002       .  S
Co703       O704   2.021   1_554  S
O704       Co997   1.896       .  S
O704       Co998   2.002       .  S
C705        C844   1.435       .  S
C706        C842   1.407       .  S
C707        O990   1.268       .  A
C707       C2044   1.427       .  S
C708        O992   1.281       .  A
C708        C871   1.443       .  S
O709       Co729   1.871       .  S
O709        C717   1.259       .  A
O710       Co730   1.981       .  S
O710        C718   1.273       .  A
O711       Co731   2.104       .  S
O711        C719   1.305       .  A
O712       Co732   1.981       .  S
O712        C720   1.259       .  A
O713       Co730   1.880       .  S
O713        C719   1.282       .  A
O714       Co729   1.980       .  S
O714        C720   1.259       .  A
O715       Co732   2.013       .  S
O715        C718   1.277       .  A
O716       Co731   2.117       .  S
O716        C717   1.303       .  A
C717        C864   1.431       .  S
C718        C861   1.437       .  S
C719        C836   1.435       .  S
C720        C837   1.411       .  S
O721       Co729   1.970       .  S
O721        C734   1.263       .  A
O722       Co730   1.993       .  S
O722        C735   1.252       .  A
O723       Co731   1.890       .  S
O723        C736   1.270       .  A
O724       Co732   1.959       .  S
O724        C737   1.265       .  A
O725       Co730   2.020       .  S
O725        C737   1.283       .  A
O726       Co729   2.093       .  S
O726        C736   1.297       .  A
O727       Co732   1.974       .  S
O727        C734   1.267       .  A
O728       Co731   1.988       .  S
O728        C735   1.252       .  A
Co729       O733   1.955       .  S
Co730       O733   1.896       .  S
Co731       O733   2.011       .  S
Co732       O733   1.997       .  S
C735        C840   1.428       .  S
C736        C880   1.433       .  S
C737        C877   1.426       .  S
O738       Co758   1.941       .  S
O738        C746   1.237       .  A
O739       Co759   1.904       .  S
O739        C747   1.283       .  A
O740       Co760   2.035       .  S
O740        C748   1.277       .  A
O741       Co761   1.995       .  S
O741        C749   1.260       .  A
O742       Co759   1.983       .  S
O742        C748   1.276       .  A
O743       Co758   1.949       .  S
O743        C749   1.252       .  A
O744       Co761   2.110       .  S
O744        C747   1.303       .  A
O745       Co760   2.065       .  S
O745        C746   1.263       .  A
C746        C867   1.452       .  S
C747        C866   1.437       .  S
C748        C829   1.463       .  S
C749        C838   1.410       .  S
O750       Co758   2.021       .  S
O750        C763   1.265       .  A
O751      Co1943   2.032       .  S
O751        C764   1.276   1_655  A
O752       Co760   1.949       .  S
O752        C765   1.256       .  A
O753       Co761   1.978       .  S
O753        C766   1.248       .  A
O754       Co759   2.031       .  S
O754        C766   1.249       .  A
O755       Co758   2.078       .  S
O755        C765   1.285       .  A
O756       Co761   1.986       .  S
O756        C763   1.266       .  A
O757      Co1944   1.954   1_455  S
O757        C764   1.261       .  A
Co758       O762   2.066       .  S
Co759      O1935   2.032       .  S
Co759       O762   2.016       .  S
Co760      O1941   1.954       .  S
Co760       O762   2.089       .  S
Co761       O762   2.125       .  S
C763        C831   1.459       .  S
C764        C839   1.424       .  S
C765        C875   1.446       .  S
C766        C874   1.438       .  S
O767       Co787   1.879       .  S
O767        C775   1.269       .  A
O768       Co788   1.952       .  S
O768        C776   1.261       .  A
O769       Co789   2.015       .  S
O769        C777   1.274       .  A
O770      Co1974   2.000       .  S
O770        C778   1.251       .  A
O771       Co788   1.965       .  S
O771        C777   1.263       .  A
O772      Co1971   2.005       .  S
O772        C778   1.254       .  A
O773       Co790   2.013       .  S
O773        C776   1.279       .  A
O774       Co789   2.112       .  S
O774        C775   1.302       .  A
C775        C843   1.436       .  S
C776        C841   1.416       .  S
C777        C835   1.433       .  S
C778        C826   1.443       .  S
O779       Co787   2.136       .  S
O779        C792   1.313       .  A
O780       Co788   1.993       .  S
O780        C793   1.261       .  A
O781       Co789   1.878       .  S
O781        C794   1.266       .  A
O782       Co790   1.986       .  S
O782        C795   1.278       .  A
O783       Co788   2.008       .  S
O783        C795   1.278       .  A
O784       Co787   2.135       .  S
O784        C794   1.313       .  A
O785       Co790   1.900       .  S
O785        C792   1.285       .  A
O786       Co789   1.997       .  S
O786        C793   1.266       .  A
Co787      O1956   2.005       .  S
Co787       O791   2.018       .  S
Co788       O791   1.995       .  S
Co789       O791   1.967       .  S
Co790      O1954   2.000   1_455  S
Co790       O791   1.921       .  S
C793        C828   1.436       .  S
C794        C855   1.459       .  S
C795        C853   1.437       .  S
O796       Co816   1.947       .  S
O796        C804   1.241       .  A
O797       Co817   1.908       .  S
O797        C805   1.260       .  A
O798       Co818   1.970       .  S
O798        C806   1.253       .  A
O799       Co819   2.041       .  S
O799        C807   1.277       .  A
O800       Co817   1.964       .  S
O800        C806   1.252       .  A
O801       Co816   1.960       .  S
O801        C807   1.258       .  A
O802       Co819   2.088       .  S
O802        C805   1.283       .  A
O803       Co818   2.041       .  S
O803        C804   1.267       .  A
C804        C847   1.425       .  S
C805        C846   1.423       .  S
C806        C833   1.416       .  S
C807        C825   1.440       .  S
O808       Co816   1.993       .  S
O808        C821   1.268       .  A
O809       Co817   2.058       .  S
O809        C822   1.294       .  A
O810       Co818   1.936       .  S
O810        C823   1.244       .  A
O811       Co819   1.943       .  S
O811        C824   1.284       .  A
O812       Co817   2.111       .  S
O812        C824   1.306       .  A
O813       Co816   2.081       .  S
O813        C823   1.283       .  A
O814       Co819   2.004       .  S
O814        C821   1.283       .  A
O815       Co818   1.945       .  S
O815        C822   1.255       .  A
Co816       O820   2.010       .  S
Co817       O820   1.975       .  S
Co818       O820   2.072       .  S
Co819       O820   2.039       .  S
C821        C832   1.453       .  S
C822        C827   1.432       .  S
C823        C851   1.440       .  S
C824        C850   1.452       .  S
C825        C826   1.211       .  T
C827        C828   1.205       .  T
C829       C2014   1.224       .  T
C830       C2013   1.224       .  T
C831        C832   1.220       .  T
C833        C834   1.196       .  T
C835        C836   1.206       .  T
C837        C838   1.192       .  T
C839        C840   1.201       .  T
C841       C2026   1.193       .  T
C842       C2025   1.193       .  T
C843       C2028   1.207   1_455  T
C844       C2027   1.207       .  T
C845        C846   1.201       .  T
C847        C848   1.203       .  T
C849        C850   1.219       .  T
C851        C852   1.213       .  T
C853        C854   1.209       .  T
C855        C856   1.222       .  T
C857       C1154   1.191       .  T
C858       C1153   1.191       .  T
C859        C974   1.427       .  S
C859        C860   1.202       .  T
C860       C1891   1.427       .  S
C861        C862   1.208       .  T
C863        C864   1.208       .  T
C865        C866   1.208       .  T
C867        C868   1.218       .  T
C871        C872   1.212       .  T
C872        C946   1.443   1_556  S
C873       C2058   1.211   1_455  T
C874       C2057   1.211       .  T
C875       C2060   1.215       .  T
C876       C2059   1.215       .  T
C877        C878   1.199       .  T
C879        C880   1.204       .  T
C881       C2066   1.213       .  T
C882       C2065   1.213       .  T
C883        C884   1.191       .  T
C884        C927   1.409       .  S
C885        C886   1.205   1_556  T
C887        C888   1.210       .  T
O889       Co909   1.994       .  S
O890      Co2094   1.992       .  S
O890        C898   1.248       .  A
O891       Co911   1.990       .  S
O891        C899   1.279       .  A
O892       Co912   1.912       .  S
O892        C900   1.274       .  A
O893       Co910   2.024       .  S
O893        C899   1.286       .  A
O894       Co909   2.101       .  S
O894        C900   1.301       .  A
O895      Co2096   1.965       .  S
O896       Co911   1.978       .  S
O896        C897   1.270   1_556  A
C897       C1183   1.439       .  S
C898       C1179   1.406       .  S
C899       C1169   1.443       .  S
C900       C1172   1.451   1_455  S
O901       Co909   1.886       .  S
O901        C914   1.264       .  A
O902       Co910   1.983       .  S
O902        C915   1.271       .  A
O903       Co911   2.010       .  S
O904       Co912   2.120       .  S
O904        C917   1.309       .  A
O905       Co910   1.892       .  S
O906       Co909   1.990       .  S
O906        C916   1.261       .  A
O907       Co912   2.093       .  S
O907        C914   1.297       .  A
O908       Co911   1.972       .  S
O908        C915   1.265       .  A
Co909       O913   1.967       .  S
Co910      O2074   1.992   1_455  S
Co912      O2079   1.965   1_455  S
Co912       O913   2.023       .  S
C914       C1175   1.430       .  S
C915       C1174   1.416       .  S
C916       C1181   1.430       .  S
C917       C1178   1.445   1_455  S
O918       Co938   2.078       .  S
O918        C926   1.306       .  A
O919       Co939   1.987       .  S
O920       Co940   2.119       .  S
O920        C928   1.310       .  A
O921       Co941   1.910       .  S
O921        C929   1.289       .  A
O922       Co939   1.882       .  S
O922        C928   1.275       .  A
O923       Co938   2.092       .  S
O923        C929   1.313       .  A
O924       Co941   1.991       .  S
O924        C927   1.227       .  A
O925       Co940   1.921       .  S
C926       C1165   1.445       .  S
C928       C1161   1.439       .  S
C929       C1164   1.456       .  S
O930       Co938   1.971       .  S
O930        C943   1.267       .  A
O931       Co939   1.990       .  S
O931        C944   1.269       .  A
O932       Co940   1.967       .  S
O933       Co941   1.975       .  S
O934       Co939   2.053       .  S
O934        C946   1.295   1_556  A
O935       Co938   1.987       .  S
O935        C945   1.246       .  A
O936       Co941   2.012       .  S
O936        C943   1.269       .  A
O937       Co940   1.981       .  S
O937        C944   1.267       .  A
Co938       O942   2.087       .  S
Co941       O942   1.982       .  S
C943       C1159   1.440       .  S
C944       C1158   1.436       .  S
C945       C1182   1.430       .  S
O947       Co967   1.984       .  S
O948       Co968   1.976       .  S
O948        C956   1.239       .  A
O949       Co969   1.993       .  S
O949        C957   1.278       .  A
O950       Co970   1.903       .  S
O950        C958   1.274       .  A
O951       Co968   2.045       .  S
O951        C957   1.292       .  A
O952       Co967   2.108       .  S
O952        C958   1.305       .  A
O953       Co970   1.983       .  S
O954       Co969   1.986       .  S
O954        C955   1.268   1_556  A
C955       C1184   1.440       .  S
C956       C1154   1.405       .  S
C957       C1145   1.459       .  S
C958       C1148   1.448       .  S
O959       Co967   1.896       .  S
O959        C972   1.259       .  A
O960       Co968   1.982       .  S
O960        C973   1.267       .  A
O961       Co969   2.009       .  S
O961        C974   1.273       .  A
O962       Co970   2.137       .  S
O963       Co968   1.881       .  S
O963        C975   1.286       .  A
O964       Co967   1.980       .  S
O965       Co970   2.126       .  S
O965        C972   1.305       .  A
O966       Co969   2.000       .  S
O966        C973   1.269       .  A
Co968       O971   1.915       .  S
Co969       O971   2.013       .  S
C972       C1152   1.459       .  S
C973       C1150   1.439       .  S
C975       C1166   1.446       .  S
O976       Co996   2.008       .  S
O976        C984   1.269       .  A
O977       Co997   1.983       .  S
O978       Co998   1.969       .  S
O978        C986   1.272       .  A
O979       Co999   1.901       .  S
O979        C987   1.278       .  A
O980       Co997   2.019       .  S
O980        C986   1.285       .  A
O981       Co996   2.074       .  S
O981        C987   1.297       .  A
O982       Co999   1.977       .  S
O982        C985   1.244       .  A
O983       Co998   1.976       .  S
C985       C1153   1.406       .  S
C986       C1141   1.426       .  S
C987       C1144   1.432       .  S
O988       Co996   1.884       .  S
O988       C1001   1.265       .  A
O989       Co997   1.966       .  S
O989       C1002   1.266       .  A
O990       Co998   2.008       .  S
O991       Co999   2.143       .  S
O991       C1004   1.317       .  A
O992       Co997   1.874       .  S
O993       Co996   1.982       .  S
O993       C1003   1.260       .  A
O994       Co999   2.099       .  S
O994       C1001   1.299       .  A
O995       Co998   1.977       .  S
O995       C1002   1.266       .  A
Co996      O1000   1.951       .  S
Co999      O1000   2.021       .  S
C1001      C1140   1.435       .  S
C1002      C1138   1.407       .  S
C1003      C2340   1.427       .  S
C1004      C1167   1.443       .  S
O1005     Co1025   1.871       .  S
O1005      C1013   1.259       .  A
O1006     Co1026   1.981       .  S
O1006      C1014   1.273       .  A
O1007     Co1027   2.104       .  S
O1007      C1015   1.305       .  A
O1008     Co1028   1.981       .  S
O1008      C1016   1.259       .  A
O1009     Co1026   1.880       .  S
O1009      C1015   1.282       .  A
O1010     Co1025   1.980       .  S
O1010      C1016   1.259       .  A
O1011     Co1028   2.013       .  S
O1011      C1014   1.277       .  A
O1012     Co1027   2.117       .  S
O1012      C1013   1.303       .  A
C1013      C1160   1.431       .  S
C1014      C1157   1.437       .  S
C1015      C1132   1.435       .  S
C1016      C1133   1.411       .  S
O1017     Co1025   1.970       .  S
O1017      C1030   1.263       .  A
O1018     Co1026   1.993       .  S
O1018      C1031   1.252       .  A
O1019     Co1027   1.890       .  S
O1019      C1032   1.270       .  A
O1020     Co1028   1.959       .  S
O1020      C1033   1.265       .  A
O1021     Co1026   2.020       .  S
O1021      C1033   1.283       .  A
O1022     Co1025   2.093       .  S
O1022      C1032   1.297       .  A
O1023     Co1028   1.974       .  S
O1023      C1030   1.267       .  A
O1024     Co1027   1.988       .  S
O1024      C1031   1.252       .  A
Co1025     O1029   1.955       .  S
Co1026     O1029   1.896       .  S
Co1027     O1029   2.011       .  S
Co1028     O1029   1.997       .  S
C1031      C1136   1.428       .  S
C1032      C1176   1.433       .  S
C1033      C1173   1.426       .  S
O1034     Co1054   1.941       .  S
O1034      C1042   1.237       .  A
O1035     Co1055   1.904       .  S
O1035      C1043   1.283       .  A
O1036     Co1056   2.035       .  S
O1036      C1044   1.277       .  A
O1037     Co1057   1.995       .  S
O1037      C1045   1.260       .  A
O1038     Co1055   1.983       .  S
O1038      C1044   1.276       .  A
O1039     Co1054   1.949       .  S
O1039      C1045   1.252       .  A
O1040     Co1057   2.110       .  S
O1040      C1043   1.303       .  A
O1041     Co1056   2.065       .  S
O1041      C1042   1.263       .  A
C1042      C1163   1.452       .  S
C1043      C1162   1.437       .  S
C1044      C1125   1.463       .  S
C1045      C1134   1.410       .  S
O1046     Co1054   2.021       .  S
O1046      C1059   1.265       .  A
O1047     Co2239   2.032       .  S
O1047      C1060   1.276   1_655  A
O1048     Co1056   1.949       .  S
O1048      C1061   1.256       .  A
O1049     Co1057   1.978       .  S
O1049      C1062   1.248       .  A
O1050     Co1055   2.031       .  S
O1050      C1062   1.249       .  A
O1051     Co1054   2.078       .  S
O1051      C1061   1.285       .  A
O1052     Co1057   1.986       .  S
O1052      C1059   1.266       .  A
O1053     Co2240   1.954   1_455  S
O1053      C1060   1.261       .  A
Co1054     O1058   2.066       .  S
Co1055     O2231   2.032       .  S
Co1055     O1058   2.016       .  S
Co1056     O2237   1.954       .  S
Co1056     O1058   2.089       .  S
Co1057     O1058   2.125       .  S
C1059      C1127   1.459       .  S
C1060      C1135   1.424       .  S
C1061      C1171   1.446       .  S
C1062      C1170   1.438       .  S
O1063     Co1083   1.879       .  S
O1063      C1071   1.269       .  A
O1064     Co1084   1.952       .  S
O1064      C1072   1.261       .  A
O1065     Co1085   2.015       .  S
O1065      C1073   1.274       .  A
O1066     Co2270   2.000       .  S
O1066      C1074   1.251       .  A
O1067     Co1084   1.965       .  S
O1067      C1073   1.263       .  A
O1068     Co2267   2.005       .  S
O1068      C1074   1.254       .  A
O1069     Co1086   2.013       .  S
O1069      C1072   1.279       .  A
O1070     Co1085   2.112       .  S
O1070      C1071   1.302       .  A
C1071      C1139   1.436       .  S
C1072      C1137   1.416       .  S
C1073      C1131   1.433       .  S
C1074      C1122   1.443       .  S
O1075     Co1083   2.136       .  S
O1075      C1088   1.313       .  A
O1076     Co1084   1.993       .  S
O1076      C1089   1.261       .  A
O1077     Co1085   1.878       .  S
O1077      C1090   1.266       .  A
O1078     Co1086   1.986       .  S
O1078      C1091   1.278       .  A
O1079     Co1084   2.008       .  S
O1079      C1091   1.278       .  A
O1080     Co1083   2.135       .  S
O1080      C1090   1.313       .  A
O1081     Co1086   1.900       .  S
O1081      C1088   1.285       .  A
O1082     Co1085   1.997       .  S
O1082      C1089   1.266       .  A
Co1083     O2252   2.005       .  S
Co1083     O1087   2.018       .  S
Co1084     O1087   1.995       .  S
Co1085     O1087   1.967       .  S
Co1086     O2250   2.000   1_455  S
Co1086     O1087   1.921       .  S
C1089      C1124   1.436       .  S
C1090      C1151   1.459       .  S
C1091      C1149   1.437       .  S
O1092     Co1112   1.947       .  S
O1092      C1100   1.241       .  A
O1093     Co1113   1.908       .  S
O1093      C1101   1.260       .  A
O1094     Co1114   1.970       .  S
O1094      C1102   1.253       .  A
O1095     Co1115   2.041       .  S
O1095      C1103   1.277       .  A
O1096     Co1113   1.964       .  S
O1096      C1102   1.252       .  A
O1097     Co1112   1.960       .  S
O1097      C1103   1.258       .  A
O1098     Co1115   2.088       .  S
O1098      C1101   1.283       .  A
O1099     Co1114   2.041       .  S
O1099      C1100   1.267       .  A
C1100      C1143   1.425       .  S
C1101      C1142   1.423       .  S
C1102      C1129   1.416       .  S
C1103      C1121   1.440       .  S
O1104     Co1112   1.993       .  S
O1104      C1117   1.268       .  A
O1105     Co1113   2.058       .  S
O1105      C1118   1.294       .  A
O1106     Co1114   1.936       .  S
O1106      C1119   1.244       .  A
O1107     Co1115   1.943       .  S
O1107      C1120   1.284       .  A
O1108     Co1113   2.111       .  S
O1108      C1120   1.306       .  A
O1109     Co1112   2.081       .  S
O1109      C1119   1.283       .  A
O1110     Co1115   2.004       .  S
O1110      C1117   1.283       .  A
O1111     Co1114   1.945       .  S
O1111      C1118   1.255       .  A
Co1112     O1116   2.010       .  S
Co1113     O1116   1.975       .  S
Co1114     O1116   2.072       .  S
Co1115     O1116   2.039       .  S
C1117      C1128   1.453       .  S
C1118      C1123   1.432       .  S
C1119      C1147   1.440       .  S
C1120      C1146   1.452       .  S
C1121      C1122   1.211       .  T
C1123      C1124   1.205       .  T
C1125      C2310   1.224       .  T
C1126      C2309   1.224       .  T
C1127      C1128   1.220       .  T
C1129      C1130   1.196       .  T
C1131      C1132   1.206       .  T
C1133      C1134   1.192       .  T
C1135      C1136   1.201       .  T
C1137      C2322   1.193       .  T
C1138      C2321   1.193       .  T
C1139      C2324   1.207   1_455  T
C1140      C2323   1.207       .  T
C1141      C1142   1.201       .  T
C1143      C1144   1.203       .  T
C1145      C1146   1.219       .  T
C1147      C1148   1.213       .  T
C1149      C1150   1.209       .  T
C1151      C1152   1.222       .  T
C1155      C1156   1.202       .  T
C1156      C2187   1.427       .  S
C1157      C1158   1.208       .  T
C1159      C1160   1.208       .  T
C1161      C1162   1.208       .  T
C1163      C1164   1.218       .  T
C1167      C1168   1.212       .  T
C1169      C2354   1.211   1_455  T
C1170      C2353   1.211       .  T
C1171      C2356   1.215       .  T
C1172      C2355   1.215       .  T
C1173      C1174   1.199       .  T
C1175      C1176   1.204       .  T
C1177      C2362   1.213       .  T
C1178      C2361   1.213       .  T
C1179      C1180   1.191       .  T
C1181      C1182   1.205       .  T
C1183      C1184   1.210       .  T
O1185     Co1205   1.994       .  S
O1185      C1489   1.267       .  A
O1186      C1194   1.248       .  A
O1187     Co1207   1.990       .  S
O1187      C1195   1.279       .  A
O1188     Co1208   1.912       .  S
O1188      C1196   1.274       .  A
O1189     Co1206   2.024       .  S
O1189      C1195   1.286       .  A
O1190     Co1205   2.101       .  S
O1190      C1196   1.301       .  A
O1191      C1490   1.243   1_554  A
O1192     Co1207   1.978       .  S
O1192      C1193   1.270       .  A
C1193      O1481   1.267       .  A
C1193      C1479   1.439       .  S
C1194      O1487   1.243       .  A
C1194      C1475   1.406       .  S
C1195      C1465   1.443       .  S
C1196      C1468   1.451       .  S
O1197     Co1205   1.886       .  S
O1197      C1210   1.264       .  A
O1198     Co1206   1.983       .  S
O1198      C1211   1.271       .  A
O1199     Co1207   2.010       .  S
O1199      C1508   1.268       .  A
O1200     Co1208   2.120       .  S
O1200      C1213   1.309   1_554  A
O1201     Co1206   1.892       .  S
O1201      C1509   1.285       .  A
O1202     Co1205   1.990       .  S
O1202      C1212   1.261   1_554  A
O1203     Co1208   2.093       .  S
O1203      C1210   1.297       .  A
O1204     Co1207   1.972       .  S
O1204      C1211   1.265       .  A
Co1205     O1209   1.967   1_554  S
Co1206     O1505   1.904       .  S
Co1207     O1505   2.010       .  S
Co1208     O1209   2.023   1_554  S
O1209     Co1502   1.904       .  S
O1209     Co1503   2.010       .  S
C1210      C1471   1.430       .  S
C1211      C1470   1.416       .  S
C1212      O1495   1.268       .  A
C1212      C1477   1.430       .  S
C1213      O1497   1.285       .  A
C1213      C1474   1.445   1_556  S
O1214     Co1234   2.078       .  S
O1214      C1222   1.306   1_554  A
O1215     Co1235   1.987       .  S
O1215      C1519   1.223       .  A
O1216     Co1236   2.119       .  S
O1216      C1224   1.310       .  A
O1217     Co1237   1.910       .  S
O1217      C1225   1.289       .  A
O1218     Co1235   1.882       .  S
O1218      C1224   1.275       .  A
O1219     Co1234   2.092       .  S
O1219      C1225   1.313       .  A
O1220     Co1237   1.991       .  S
O1220      C1223   1.227       .  A
O1221     Co1236   1.921       .  S
O1221      C1518   1.284       .  A
C1222      O1517   1.284       .  A
C1222      C1461   1.445       .  S
C1223      O1511   1.223   1_554  A
C1223      C1772   1.409   1_554  S
C1224      C1457   1.439       .  S
C1225      C1460   1.456       .  S
O1226     Co1234   1.971       .  S
O1226      C1239   1.267       .  A
O1227     Co1235   1.990       .  S
O1227      C1240   1.269       .  A
O1228     Co1236   1.967       .  S
O1228      C1537   1.242       .  A
O1229     Co1237   1.975       .  S
O1229      C1538   1.284       .  A
O1230     Co1235   2.053       .  S
O1230      C1242   1.295       .  A
O1231     Co1234   1.987       .  S
O1231      C1241   1.246       .  A
O1232     Co1237   2.012       .  S
O1232      C1239   1.269       .  A
O1233     Co1236   1.981       .  S
O1233      C1240   1.267       .  A
Co1234     O1238   2.087   1_554  S
Co1235     O1534   1.858       .  S
Co1236     O1534   2.053       .  S
Co1237     O1238   1.982   1_554  S
O1238     Co1531   1.858       .  S
O1238     Co1532   2.053       .  S
C1239      C1455   1.440       .  S
C1240      C1454   1.436       .  S
C1241      O1524   1.242   1_554  A
C1241      C1478   1.430       .  S
C1242      O1525   1.284       .  A
C1242      C1760   1.443       .  S
O1243     Co1263   1.984       .  S
O1243      C1547   1.260       .  A
O1244     Co1264   1.976       .  S
O1244      C1252   1.239       .  A
O1245     Co1265   1.993       .  S
O1245      C1253   1.278       .  A
O1246     Co1266   1.903       .  S
O1246      C1254   1.274       .  A
O1247     Co1264   2.045       .  S
O1247      C1253   1.292       .  A
O1248     Co1263   2.108       .  S
O1248      C1254   1.305       .  A
O1249     Co1266   1.983       .  S
O1249      C1548   1.239   1_554  A
O1250     Co1265   1.986       .  S
O1250      C1251   1.268       .  A
C1251      O1539   1.260       .  A
C1251      C1480   1.440       .  S
C1252      O1545   1.239       .  A
C1252      C1450   1.405       .  S
C1253      C1441   1.459       .  S
C1254      C1444   1.448       .  S
O1255     Co1263   1.896       .  S
O1255      C1268   1.259       .  A
O1256     Co1264   1.982       .  S
O1256      C1269   1.267       .  A
O1257     Co1265   2.009       .  S
O1257      C1270   1.273       .  A
O1258     Co1266   2.137       .  S
O1258      C1567   1.316   1_554  A
O1259     Co1264   1.881       .  S
O1259      C1271   1.286       .  A
O1260     Co1263   1.980       .  S
O1260      C1566   1.265   1_554  A
O1261     Co1266   2.126       .  S
O1261      C1268   1.305       .  A
O1262     Co1265   2.000       .  S
O1262      C1269   1.269       .  A
Co1263     O1563   1.975   1_554  S
Co1264     O1267   1.915       .  S
Co1265     O1267   2.013       .  S
Co1266     O1563   2.032   1_554  S
O1267     Co1559   1.975       .  S
O1267     Co1562   2.032       .  S
C1268      C1448   1.459       .  S
C1269      C1446   1.439       .  S
C1270      O1556   1.265       .  A
C1270      C1747   1.427       .  S
C1271      O1554   1.316       .  A
C1271      C1462   1.445       .  S
O1272     Co1292   2.008       .  S
O1272      C1280   1.269       .  A
O1273     Co1293   1.983       .  S
O1273      C1577   1.243       .  A
O1274     Co1294   1.969       .  S
O1274      C1282   1.272       .  A
O1275     Co1295   1.901       .  S
O1275      C1283   1.278       .  A
O1276     Co1293   2.019       .  S
O1276      C1282   1.285       .  A
O1277     Co1292   2.074       .  S
O1277      C1283   1.297       .  A
O1278     Co1295   1.977       .  S
O1278      C1281   1.244   1_554  A
O1279     Co1294   1.976       .  S
O1279      C1576   1.266       .  A
C1280      O1575   1.266   1_554  A
C1280      C2065   1.443       .  S
C1281      O1569   1.243       .  A
C1281      C1449   1.406       .  S
C1282      C1437   1.426       .  S
C1283      C1440   1.432       .  S
O1284     Co1292   1.884       .  S
O1284      C1297   1.265       .  A
O1285     Co1293   1.966       .  S
O1285      C1298   1.266       .  A
O1286     Co1294   2.008       .  S
O1286      C1595   1.268   1_655  A
O1287     Co1295   2.143       .  S
O1287      C1300   1.317   1_554  A
O1288     Co1293   1.874       .  S
O1288      C1596   1.281       .  A
O1289     Co1292   1.982       .  S
O1289      C1299   1.260   1_654  A
O1290     Co1295   2.099       .  S
O1290      C1297   1.299       .  A
O1291     Co1294   1.977       .  S
O1291      C1298   1.266       .  A
Co1292     O1296   1.951   1_554  S
Co1293     O1592   1.896       .  S
Co1294     O1592   2.002       .  S
Co1295     O1296   2.021   1_554  S
O1296     Co1589   1.896       .  S
O1296     Co1590   2.002       .  S
C1297      C1436   1.435       .  S
C1298      C1434   1.407   1_655  S
C1299      O1582   1.268   1_455  A
C1300      O1584   1.281       .  A
C1300      C1463   1.443       .  S
O1301     Co1321   1.871       .  S
O1301      C1309   1.259       .  A
O1302     Co1322   1.981       .  S
O1302      C1310   1.273       .  A
O1303     Co1323   2.104       .  S
O1303      C1311   1.305       .  A
O1304     Co1324   1.981       .  S
O1304      C1312   1.259       .  A
O1305     Co1322   1.880       .  S
O1305      C1311   1.282       .  A
O1306     Co1321   1.980       .  S
O1306      C1312   1.259       .  A
O1307     Co1324   2.013       .  S
O1307      C1310   1.277       .  A
O1308     Co1323   2.117       .  S
O1308      C1309   1.303       .  A
C1309      C1456   1.431       .  S
C1310      C1453   1.437       .  S
C1311      C1428   1.435       .  S
C1312      C1429   1.411       .  S
O1313     Co1321   1.970       .  S
O1313      C1326   1.263       .  A
O1314     Co1322   1.993       .  S
O1314      C1327   1.252       .  A
O1315     Co1323   1.890       .  S
O1315      C1328   1.270       .  A
O1316     Co1324   1.959       .  S
O1316      C1329   1.265       .  A
O1317     Co1322   2.020       .  S
O1317      C1329   1.283       .  A
O1318     Co1321   2.093       .  S
O1318      C1328   1.297       .  A
O1319     Co1324   1.974       .  S
O1319      C1326   1.267       .  A
O1320     Co1323   1.988       .  S
O1320      C1327   1.252       .  A
Co1321     O1325   1.955       .  S
Co1322     O1325   1.896       .  S
Co1323     O1325   2.011       .  S
Co1324     O1325   1.997       .  S
C1326      C2018   1.414   1_545  S
C1327      C1432   1.428       .  S
C1328      C1472   1.433       .  S
C1329      C1469   1.426       .  S
O1330     Co1350   1.941       .  S
O1330      C1338   1.237       .  A
O1331     Co1351   1.904       .  S
O1331      C1339   1.283       .  A
O1332     Co1352   2.035       .  S
O1332      C1340   1.277       .  A
O1333     Co1353   1.995       .  S
O1333      C1341   1.260       .  A
O1334     Co1351   1.983       .  S
O1334      C1340   1.276       .  A
O1335     Co1350   1.949       .  S
O1335      C1341   1.252       .  A
O1336     Co1353   2.110       .  S
O1336      C1339   1.303       .  A
O1337     Co1352   2.065       .  S
O1337      C1338   1.263       .  A
C1338      C1459   1.452       .  S
C1339      C1458   1.437       .  S
C1340      C1421   1.463       .  S
C1341      C1430   1.410       .  S
O1342     Co1350   2.021       .  S
O1342      C1355   1.265       .  A
O1343      C1356   1.276       .  A
O1344     Co1352   1.949       .  S
O1344      C1357   1.256       .  A
O1345     Co1353   1.978       .  S
O1345      C1358   1.248       .  A
O1346     Co1351   2.031       .  S
O1346      C1358   1.249       .  A
O1347     Co1350   2.078       .  S
O1347      C1357   1.285       .  A
O1348     Co1353   1.986       .  S
O1348      C1355   1.266       .  A
O1349      C1356   1.261       .  A
Co1350     O1354   2.066       .  S
Co1351     O1354   2.016       .  S
Co1352     O1354   2.089       .  S
Co1353     O1354   2.125       .  S
C1355      C1423   1.459       .  S
C1356      C1431   1.424       .  S
C1357      C1467   1.446       .  S
C1358      C1466   1.438       .  S
O1359     Co1379   1.879       .  S
O1359      C1367   1.269       .  A
O1360     Co1380   1.952       .  S
O1360      C1368   1.261       .  A
O1361     Co1381   2.015       .  S
O1361      C1369   1.274       .  A
O1362      C1370   1.251       .  A
O1363     Co1380   1.965       .  S
O1363      C1369   1.263       .  A
O1364      C1370   1.254   1_455  A
O1365     Co1382   2.013       .  S
O1365      C1368   1.279       .  A
O1366     Co1381   2.112       .  S
O1366      C1367   1.302       .  A
C1367      C1435   1.436       .  S
C1368      C1433   1.416       .  S
C1369      C1427   1.433       .  S
C1370      C1418   1.443       .  S
O1371     Co1379   2.136       .  S
O1371      C1384   1.313       .  A
O1372     Co1380   1.993       .  S
O1372      C1385   1.261       .  A
O1373     Co1381   1.878       .  S
O1373      C1386   1.266       .  A
O1374     Co1382   1.986       .  S
O1374      C1387   1.278       .  A
O1375     Co1380   2.008       .  S
O1375      C1387   1.278       .  A
O1376     Co1379   2.135       .  S
O1376      C1386   1.313       .  A
O1377     Co1382   1.900       .  S
O1377      C1384   1.285       .  A
O1378     Co1381   1.997       .  S
O1378      C1385   1.266       .  A
Co1379     O1383   2.018       .  S
Co1380     O1383   1.995       .  S
Co1381     O1383   1.967       .  S
Co1382     O1383   1.921       .  S
C1384      C2014   1.466       .  S
C1385      C1420   1.436       .  S
C1386      C1447   1.459       .  S
C1387      C1445   1.437       .  S
O1388     Co1408   1.947       .  S
O1388      C1396   1.241       .  A
O1389     Co1409   1.908       .  S
O1389      C1397   1.260       .  A
O1390     Co1410   1.970       .  S
O1390      C1398   1.253       .  A
O1391     Co1411   2.041       .  S
O1391      C1399   1.277       .  A
O1392     Co1409   1.964       .  S
O1392      C1398   1.252       .  A
O1393     Co1408   1.960       .  S
O1393      C1399   1.258       .  A
O1394     Co1411   2.088       .  S
O1394      C1397   1.283       .  A
O1395     Co1410   2.041       .  S
O1395      C1396   1.267       .  A
C1396      C1439   1.425       .  S
C1397      C1438   1.423       .  S
C1398      C1425   1.416       .  S
C1399      C1417   1.440       .  S
O1400     Co1408   1.993       .  S
O1400      C1413   1.268       .  A
O1401     Co1409   2.058       .  S
O1401      C1414   1.294       .  A
O1402     Co1410   1.936       .  S
O1402      C1415   1.244       .  A
O1403     Co1411   1.943       .  S
O1403      C1416   1.284       .  A
O1404     Co1409   2.111       .  S
O1404      C1416   1.306       .  A
O1405     Co1408   2.081       .  S
O1405      C1415   1.283       .  A
O1406     Co1411   2.004       .  S
O1406      C1413   1.283       .  A
O1407     Co1410   1.945       .  S
O1407      C1414   1.255       .  A
Co1408     O1412   2.010       .  S
Co1409     O1412   1.975       .  S
Co1410     O1412   2.072       .  S
Co1411     O1412   2.039       .  S
C1413      C1424   1.453       .  S
C1414      C1419   1.432       .  S
C1415      C1443   1.440       .  S
C1416      C1442   1.452       .  S
C1417      C1418   1.211       .  T
C1419      C1420   1.205       .  T
C1422      C1976   1.466       .  S
C1423      C1424   1.220       .  T
C1425      C1426   1.196       .  T
C1426      C1918   1.414       .  S
C1427      C1428   1.206       .  T
C1429      C1430   1.192       .  T
C1431      C1432   1.201       .  T
C1437      C1438   1.201       .  T
C1439      C1440   1.203       .  T
C1441      C1442   1.219       .  T
C1443      C1444   1.213       .  T
C1445      C1446   1.209       .  T
C1447      C1448   1.222       .  T
C1449      C1746   1.191       .  T
C1450      C1745   1.191       .  T
C1451      C1566   1.427       .  S
C1451      C1452   1.202       .  T
C1453      C1454   1.208       .  T
C1455      C1456   1.208       .  T
C1457      C1458   1.208       .  T
C1459      C1460   1.218       .  T
C1461      C2350   1.214   1_545  T
C1462      C2349   1.214       .  T
C1463      C1464   1.212       .  T
C1464      C1538   1.443   1_556  S
C1469      C1470   1.199       .  T
C1471      C1472   1.204       .  T
C1473      C1872   1.443       .  S
C1475      C1476   1.191       .  T
C1476      C1519   1.409       .  S
C1477      C1478   1.205   1_556  T
C1479      C1480   1.210       .  T
O1481     Co1501   1.994       .  S
O1482      C1490   1.248       .  A
O1483     Co1503   1.990       .  S
O1483      C1491   1.279       .  A
O1484     Co1504   1.912       .  S
O1484      C1492   1.274       .  A
O1485     Co1502   2.024       .  S
O1485      C1491   1.286       .  A
O1486     Co1501   2.101       .  S
O1486      C1492   1.301       .  A
O1488     Co1503   1.978       .  S
O1488      C1489   1.270   1_556  A
C1489      C1775   1.439       .  S
C1490      C1771   1.406       .  S
C1491      C1761   1.443       .  S
C1492      C1764   1.451       .  S
O1493     Co1501   1.886       .  S
O1493      C1506   1.264       .  A
O1494     Co1502   1.983       .  S
O1494      C1507   1.271       .  A
O1495     Co1503   2.010       .  S
O1496     Co1504   2.120       .  S
O1496      C1509   1.309       .  A
O1497     Co1502   1.892       .  S
O1498     Co1501   1.990       .  S
O1498      C1508   1.261       .  A
O1499     Co1504   2.093       .  S
O1499      C1506   1.297       .  A
O1500     Co1503   1.972       .  S
O1500      C1507   1.265       .  A
Co1501     O1505   1.967       .  S
Co1504     O1505   2.023       .  S
C1506      C1767   1.430       .  S
C1507      C1766   1.416       .  S
C1508      C1773   1.430       .  S
C1509      C1770   1.445       .  S
O1510     Co1530   2.078       .  S
O1510      C1518   1.306       .  A
O1511     Co1531   1.987       .  S
O1512     Co1532   2.119       .  S
O1512      C1520   1.310       .  A
O1513     Co1533   1.910       .  S
O1513      C1521   1.289       .  A
O1514     Co1531   1.882       .  S
O1514      C1520   1.275       .  A
O1515     Co1530   2.092       .  S
O1515      C1521   1.313       .  A
O1516     Co1533   1.991       .  S
O1516      C1519   1.227       .  A
O1517     Co1532   1.921       .  S
C1518      C1757   1.445       .  S
C1520      C1753   1.439       .  S
C1521      C1756   1.456       .  S
O1522     Co1530   1.971       .  S
O1522      C1535   1.267       .  A
O1523     Co1531   1.990       .  S
O1523      C1536   1.269       .  A
O1524     Co1532   1.967       .  S
O1525     Co1533   1.975       .  S
O1526     Co1531   2.053       .  S
O1526      C1538   1.295   1_556  A
O1527     Co1530   1.987       .  S
O1527      C1537   1.246       .  A
O1528     Co1533   2.012       .  S
O1528      C1535   1.269       .  A
O1529     Co1532   1.981       .  S
O1529      C1536   1.267       .  A
Co1530     O1534   2.087       .  S
Co1533     O1534   1.982       .  S
C1535      C1751   1.440       .  S
C1536      C1750   1.436       .  S
C1537      C1774   1.430       .  S
O1539     Co1559   1.984       .  S
O1540     Co1560   1.976       .  S
O1540      C1548   1.239       .  A
O1541     Co1561   1.993       .  S
O1541      C1549   1.278       .  A
O1542     Co1562   1.903       .  S
O1542      C1550   1.274       .  A
O1543     Co1560   2.045       .  S
O1543      C1549   1.292       .  A
O1544     Co1559   2.108       .  S
O1544      C1550   1.305       .  A
O1545     Co1562   1.983       .  S
O1546     Co1561   1.986       .  S
O1546      C1547   1.268   1_556  A
C1547      C1776   1.440       .  S
C1548      C1746   1.405       .  S
C1549      C1737   1.459       .  S
C1550      C1740   1.448       .  S
O1551     Co1559   1.896       .  S
O1551      C1564   1.259       .  A
O1552     Co1560   1.982       .  S
O1552      C1565   1.267       .  A
O1553     Co1561   2.009       .  S
O1553      C1566   1.273       .  A
O1554     Co1562   2.137       .  S
O1555     Co1560   1.881       .  S
O1555      C1567   1.286       .  A
O1556     Co1559   1.980       .  S
O1557     Co1562   2.126       .  S
O1557      C1564   1.305       .  A
O1558     Co1561   2.000       .  S
O1558      C1565   1.269       .  A
Co1560     O1563   1.915       .  S
Co1561     O1563   2.013       .  S
C1564      C1744   1.459       .  S
C1565      C1742   1.439       .  S
C1567      C1758   1.446       .  S
O1568     Co1588   2.008       .  S
O1568      C1576   1.269       .  A
O1569     Co1589   1.983       .  S
O1570     Co1590   1.969       .  S
O1570      C1578   1.272       .  A
O1571     Co1591   1.901       .  S
O1571      C1579   1.278       .  A
O1572     Co1589   2.019       .  S
O1572      C1578   1.285       .  A
O1573     Co1588   2.074       .  S
O1573      C1579   1.297       .  A
O1574     Co1591   1.977       .  S
O1574      C1577   1.244       .  A
O1575     Co1590   1.976       .  S
C1576      C2361   1.443       .  S
C1577      C1745   1.406       .  S
C1578      C1733   1.426       .  S
C1579      C1736   1.432       .  S
O1580     Co1588   1.884       .  S
O1580      C1593   1.265       .  A
O1581     Co1589   1.966       .  S
O1581      C1594   1.266       .  A
O1582     Co1590   2.008       .  S
O1583     Co1591   2.143       .  S
O1583      C1596   1.317       .  A
O1584     Co1589   1.874       .  S
O1585     Co1588   1.982       .  S
O1585      C1595   1.260   1_655  A
O1586     Co1591   2.099       .  S
O1586      C1593   1.299       .  A
O1587     Co1590   1.977       .  S
O1587      C1594   1.266       .  A
Co1588     O1592   1.951       .  S
Co1591     O1592   2.021       .  S
C1593      C1732   1.435       .  S
C1594      C1730   1.407   1_655  S
C1596      C1759   1.443       .  S
O1597     Co1617   1.871       .  S
O1597      C1605   1.259       .  A
O1598     Co1618   1.981       .  S
O1598      C1606   1.273       .  A
O1599     Co1619   2.104       .  S
O1599      C1607   1.305       .  A
O1600     Co1620   1.981       .  S
O1600      C1608   1.259       .  A
O1601     Co1618   1.880       .  S
O1601      C1607   1.282       .  A
O1602     Co1617   1.980       .  S
O1602      C1608   1.259       .  A
O1603     Co1620   2.013       .  S
O1603      C1606   1.277       .  A
O1604     Co1619   2.117       .  S
O1604      C1605   1.303       .  A
C1605      C1752   1.431       .  S
C1606      C1749   1.437       .  S
C1607      C1724   1.435       .  S
C1608      C1725   1.411       .  S
O1609     Co1617   1.970       .  S
O1609      C1622   1.263       .  A
O1610     Co1618   1.993       .  S
O1610      C1623   1.252       .  A
O1611     Co1619   1.890       .  S
O1611      C1624   1.270       .  A
O1612     Co1620   1.959       .  S
O1612      C1625   1.265       .  A
O1613     Co1618   2.020       .  S
O1613      C1625   1.283       .  A
O1614     Co1617   2.093       .  S
O1614      C1624   1.297       .  A
O1615     Co1620   1.974       .  S
O1615      C1622   1.267       .  A
O1616     Co1619   1.988       .  S
O1616      C1623   1.252       .  A
Co1617     O1621   1.955       .  S
Co1618     O1621   1.896       .  S
Co1619     O1621   2.011       .  S
Co1620     O1621   1.997       .  S
C1622      C2314   1.414   1_545  S
C1623      C1728   1.428       .  S
C1624      C1768   1.433       .  S
C1625      C1765   1.426       .  S
O1626     Co1646   1.941       .  S
O1626      C1634   1.237       .  A
O1627     Co1647   1.904       .  S
O1627      C1635   1.283       .  A
O1628     Co1648   2.035       .  S
O1628      C1636   1.277       .  A
O1629     Co1649   1.995       .  S
O1629      C1637   1.260       .  A
O1630     Co1647   1.983       .  S
O1630      C1636   1.276       .  A
O1631     Co1646   1.949       .  S
O1631      C1637   1.252       .  A
O1632     Co1649   2.110       .  S
O1632      C1635   1.303       .  A
O1633     Co1648   2.065       .  S
O1633      C1634   1.263       .  A
C1634      C1755   1.452       .  S
C1635      C1754   1.437       .  S
C1636      C1717   1.463       .  S
C1637      C1726   1.410       .  S
O1638     Co1646   2.021       .  S
O1638      C1651   1.265       .  A
O1639      C1652   1.276       .  A
O1640     Co1648   1.949       .  S
O1640      C1653   1.256       .  A
O1641     Co1649   1.978       .  S
O1641      C1654   1.248       .  A
O1642     Co1647   2.031       .  S
O1642      C1654   1.249       .  A
O1643     Co1646   2.078       .  S
O1643      C1653   1.285       .  A
O1644     Co1649   1.986       .  S
O1644      C1651   1.266       .  A
O1645      C1652   1.261       .  A
Co1646     O1650   2.066       .  S
Co1647     O1650   2.016       .  S
Co1648     O1650   2.089       .  S
Co1649     O1650   2.125       .  S
C1651      C1719   1.459       .  S
C1652      C1727   1.424       .  S
C1653      C1763   1.446       .  S
C1654      C1762   1.438       .  S
O1655     Co1675   1.879       .  S
O1655      C1663   1.269       .  A
O1656     Co1676   1.952       .  S
O1656      C1664   1.261       .  A
O1657     Co1677   2.015       .  S
O1657      C1665   1.274       .  A
O1658      C1666   1.251       .  A
O1659     Co1676   1.965       .  S
O1659      C1665   1.263       .  A
O1660      C1666   1.254   1_455  A
O1661     Co1678   2.013       .  S
O1661      C1664   1.279       .  A
O1662     Co1677   2.112       .  S
O1662      C1663   1.302       .  A
C1663      C1731   1.436       .  S
C1664      C1729   1.416       .  S
C1665      C1723   1.433       .  S
C1666      C1714   1.443       .  S
O1667     Co1675   2.136       .  S
O1667      C1680   1.313       .  A
O1668     Co1676   1.993       .  S
O1668      C1681   1.261       .  A
O1669     Co1677   1.878       .  S
O1669      C1682   1.266       .  A
O1670     Co1678   1.986       .  S
O1670      C1683   1.278       .  A
O1671     Co1676   2.008       .  S
O1671      C1683   1.278       .  A
O1672     Co1675   2.135       .  S
O1672      C1682   1.313       .  A
O1673     Co1678   1.900       .  S
O1673      C1680   1.285       .  A
O1674     Co1677   1.997       .  S
O1674      C1681   1.266       .  A
Co1675     O1679   2.018       .  S
Co1676     O1679   1.995       .  S
Co1677     O1679   1.967       .  S
Co1678     O1679   1.921       .  S
C1680      C2310   1.466       .  S
C1681      C1716   1.436       .  S
C1682      C1743   1.459       .  S
C1683      C1741   1.437       .  S
O1684     Co1704   1.947       .  S
O1684      C1692   1.241       .  A
O1685     Co1705   1.908       .  S
O1685      C1693   1.260       .  A
O1686     Co1706   1.970       .  S
O1686      C1694   1.253       .  A
O1687     Co1707   2.041       .  S
O1687      C1695   1.277       .  A
O1688     Co1705   1.964       .  S
O1688      C1694   1.252       .  A
O1689     Co1704   1.960       .  S
O1689      C1695   1.258       .  A
O1690     Co1707   2.088       .  S
O1690      C1693   1.283       .  A
O1691     Co1706   2.041       .  S
O1691      C1692   1.267       .  A
C1692      C1735   1.425       .  S
C1693      C1734   1.423       .  S
C1694      C1721   1.416       .  S
C1695      C1713   1.440       .  S
O1696     Co1704   1.993       .  S
O1696      C1709   1.268       .  A
O1697     Co1705   2.058       .  S
O1697      C1710   1.294       .  A
O1698     Co1706   1.936       .  S
O1698      C1711   1.244       .  A
O1699     Co1707   1.943       .  S
O1699      C1712   1.284       .  A
O1700     Co1705   2.111       .  S
O1700      C1712   1.306       .  A
O1701     Co1704   2.081       .  S
O1701      C1711   1.283       .  A
O1702     Co1707   2.004       .  S
O1702      C1709   1.283       .  A
O1703     Co1706   1.945       .  S
O1703      C1710   1.255       .  A
Co1704     O1708   2.010       .  S
Co1705     O1708   1.975       .  S
Co1706     O1708   2.072       .  S
Co1707     O1708   2.039       .  S
C1709      C1720   1.453       .  S
C1710      C1715   1.432       .  S
C1711      C1739   1.440       .  S
C1712      C1738   1.452       .  S
C1713      C1714   1.211       .  T
C1715      C1716   1.205       .  T
C1718      C2272   1.466       .  S
C1719      C1720   1.220       .  T
C1721      C1722   1.196       .  T
C1722      C2214   1.414       .  S
C1723      C1724   1.206       .  T
C1725      C1726   1.192       .  T
C1727      C1728   1.201       .  T
C1733      C1734   1.201       .  T
C1735      C1736   1.203       .  T
C1737      C1738   1.219       .  T
C1739      C1740   1.213       .  T
C1741      C1742   1.209       .  T
C1743      C1744   1.222       .  T
C1747      C1748   1.202       .  T
C1749      C1750   1.208       .  T
C1751      C1752   1.208       .  T
C1753      C1754   1.208       .  T
C1755      C1756   1.218       .  T
C1757      C2054   1.214   1_545  T
C1758      C2053   1.214       .  T
C1759      C1760   1.212       .  T
C1765      C1766   1.199       .  T
C1767      C1768   1.204       .  T
C1769      C2168   1.443       .  S
C1771      C1772   1.191       .  T
C1773      C1774   1.205       .  T
C1775      C1776   1.210       .  T
O1777     Co1797   1.994       .  S
O1777      C2081   1.267       .  A
O1778      C1786   1.248       .  A
O1779     Co1799   1.990       .  S
O1779      C1787   1.279       .  A
O1780     Co1800   1.912       .  S
O1780      C1788   1.274       .  A
O1781     Co1798   2.024       .  S
O1781      C1787   1.286       .  A
O1782     Co1797   2.101       .  S
O1782      C1788   1.301       .  A
O1783      C2082   1.243   1_554  A
O1784     Co1799   1.978       .  S
O1784      C1785   1.270       .  A
C1785      O2073   1.267       .  A
C1785      C2071   1.439       .  S
C1786      O2079   1.243       .  A
C1786      C2067   1.406       .  S
C1787      C2057   1.443       .  S
C1788      C2060   1.451       .  S
O1789     Co1797   1.886       .  S
O1789      C1802   1.264       .  A
O1790     Co1798   1.983       .  S
O1790      C1803   1.271       .  A
O1791     Co1799   2.010       .  S
O1791      C2100   1.268       .  A
O1792     Co1800   2.120       .  S
O1792      C1805   1.309   1_554  A
O1793     Co1798   1.892       .  S
O1793      C2101   1.285       .  A
O1794     Co1797   1.990       .  S
O1794      C1804   1.261   1_554  A
O1795     Co1800   2.093       .  S
O1795      C1802   1.297       .  A
O1796     Co1799   1.972       .  S
O1796      C1803   1.265       .  A
Co1797     O1801   1.967   1_554  S
Co1798     O2097   1.904       .  S
Co1799     O2097   2.010       .  S
Co1800     O1801   2.023   1_554  S
O1801     Co2094   1.904       .  S
O1801     Co2095   2.010       .  S
C1802      C2063   1.430       .  S
C1803      C2062   1.416       .  S
C1804      O2087   1.268       .  A
C1804      C2069   1.430       .  S
C1805      O2089   1.285       .  A
C1805      C2066   1.445   1_556  S
O1806     Co1826   2.078       .  S
O1806      C1814   1.306   1_554  A
O1807     Co1827   1.987       .  S
O1807      C2111   1.223       .  A
O1808     Co1828   2.119       .  S
O1808      C1816   1.310       .  A
O1809     Co1829   1.910       .  S
O1809      C1817   1.289       .  A
O1810     Co1827   1.882       .  S
O1810      C1816   1.275       .  A
O1811     Co1826   2.092       .  S
O1811      C1817   1.313       .  A
O1812     Co1829   1.991       .  S
O1812      C1815   1.227       .  A
O1813     Co1828   1.921       .  S
O1813      C2110   1.284       .  A
C1814      O2109   1.284       .  A
C1814      C2053   1.445       .  S
C1815      O2103   1.223   1_554  A
C1815      C2364   1.409   1_554  S
C1816      C2049   1.439       .  S
C1817      C2052   1.456       .  S
O1818     Co1826   1.971       .  S
O1818      C1831   1.267       .  A
O1819     Co1827   1.990       .  S
O1819      C1832   1.269       .  A
O1820     Co1828   1.967       .  S
O1820      C2129   1.242       .  A
O1821     Co1829   1.975       .  S
O1821      C2130   1.284       .  A
O1822     Co1827   2.053       .  S
O1822      C1834   1.295       .  A
O1823     Co1826   1.987       .  S
O1823      C1833   1.246       .  A
O1824     Co1829   2.012       .  S
O1824      C1831   1.269       .  A
O1825     Co1828   1.981       .  S
O1825      C1832   1.267       .  A
Co1826     O1830   2.087   1_554  S
Co1827     O2126   1.858       .  S
Co1828     O2126   2.053       .  S
Co1829     O1830   1.982   1_554  S
O1830     Co2123   1.858       .  S
O1830     Co2124   2.053       .  S
C1831      C2047   1.440       .  S
C1832      C2046   1.436       .  S
C1833      O2116   1.242   1_554  A
C1833      C2070   1.430       .  S
C1834      O2117   1.284       .  A
C1834      C2352   1.443       .  S
O1835     Co1855   1.984       .  S
O1835      C2139   1.260       .  A
O1836     Co1856   1.976       .  S
O1836      C1844   1.239       .  A
O1837     Co1857   1.993       .  S
O1837      C1845   1.278       .  A
O1838     Co1858   1.903       .  S
O1838      C1846   1.274       .  A
O1839     Co1856   2.045       .  S
O1839      C1845   1.292       .  A
O1840     Co1855   2.108       .  S
O1840      C1846   1.305       .  A
O1841     Co1858   1.983       .  S
O1841      C2140   1.239   1_554  A
O1842     Co1857   1.986       .  S
O1842      C1843   1.268       .  A
C1843      O2131   1.260       .  A
C1843      C2072   1.440       .  S
C1844      O2137   1.239       .  A
C1844      C2042   1.405       .  S
C1845      C2033   1.459       .  S
C1846      C2036   1.448       .  S
O1847     Co1855   1.896       .  S
O1847      C1860   1.259       .  A
O1848     Co1856   1.982       .  S
O1848      C1861   1.267       .  A
O1849     Co1857   2.009       .  S
O1849      C1862   1.273       .  A
O1850     Co1858   2.137       .  S
O1850      C2159   1.316   1_554  A
O1851     Co1856   1.881       .  S
O1851      C1863   1.286       .  A
O1852     Co1855   1.980       .  S
O1852      C2158   1.265   1_554  A
O1853     Co1858   2.126       .  S
O1853      C1860   1.305       .  A
O1854     Co1857   2.000       .  S
O1854      C1861   1.269       .  A
Co1855     O2155   1.975   1_554  S
Co1856     O1859   1.915       .  S
Co1857     O1859   2.013       .  S
Co1858     O2155   2.032   1_554  S
O1859     Co2151   1.975       .  S
O1859     Co2154   2.032       .  S
C1860      C2040   1.459       .  S
C1861      C2038   1.439       .  S
C1862      O2148   1.265       .  A
C1862      C2339   1.427       .  S
C1863      O2146   1.316       .  A
C1863      C2054   1.445       .  S
O1864     Co1884   2.008       .  S
O1864      C1872   1.269       .  A
O1865     Co1885   1.983       .  S
O1865      C2169   1.243       .  A
O1866     Co1886   1.969       .  S
O1866      C1874   1.272       .  A
O1867     Co1887   1.901       .  S
O1867      C1875   1.278       .  A
O1868     Co1885   2.019       .  S
O1868      C1874   1.285       .  A
O1869     Co1884   2.074       .  S
O1869      C1875   1.297       .  A
O1870     Co1887   1.977       .  S
O1870      C1873   1.244   1_554  A
O1871     Co1886   1.976       .  S
O1871      C2168   1.266       .  A
C1872      O2167   1.266   1_554  A
C1873      O2161   1.243       .  A
C1873      C2041   1.406       .  S
C1874      C2029   1.426       .  S
C1875      C2032   1.432       .  S
O1876     Co1884   1.884       .  S
O1876      C1889   1.265       .  A
O1877     Co1885   1.966       .  S
O1877      C1890   1.266       .  A
O1878     Co1886   2.008       .  S
O1878      C2187   1.268   1_655  A
O1879     Co1887   2.143       .  S
O1879      C1892   1.317   1_554  A
O1880     Co1885   1.874       .  S
O1880      C2188   1.281       .  A
O1881     Co1884   1.982       .  S
O1881      C1891   1.260   1_654  A
O1882     Co1887   2.099       .  S
O1882      C1889   1.299       .  A
O1883     Co1886   1.977       .  S
O1883      C1890   1.266       .  A
Co1884     O1888   1.951   1_554  S
Co1885     O2184   1.896       .  S
Co1886     O2184   2.002       .  S
Co1887     O1888   2.021   1_554  S
O1888     Co2181   1.896       .  S
O1888     Co2182   2.002       .  S
C1889      C2028   1.435       .  S
C1890      C2026   1.407   1_655  S
C1891      O2174   1.268   1_455  A
C1892      O2176   1.281       .  A
C1892      C2055   1.443       .  S
O1893     Co1913   1.871       .  S
O1893      C1901   1.259       .  A
O1894     Co1914   1.981       .  S
O1894      C1902   1.273       .  A
O1895     Co1915   2.104       .  S
O1895      C1903   1.305       .  A
O1896     Co1916   1.981       .  S
O1896      C1904   1.259       .  A
O1897     Co1914   1.880       .  S
O1897      C1903   1.282       .  A
O1898     Co1913   1.980       .  S
O1898      C1904   1.259       .  A
O1899     Co1916   2.013       .  S
O1899      C1902   1.277       .  A
O1900     Co1915   2.117       .  S
O1900      C1901   1.303       .  A
C1901      C2048   1.431       .  S
C1902      C2045   1.437       .  S
C1903      C2020   1.435       .  S
C1904      C2021   1.411       .  S
O1905     Co1913   1.970       .  S
O1905      C1918   1.263       .  A
O1906     Co1914   1.993       .  S
O1906      C1919   1.252       .  A
O1907     Co1915   1.890       .  S
O1907      C1920   1.270       .  A
O1908     Co1916   1.959       .  S
O1908      C1921   1.265       .  A
O1909     Co1914   2.020       .  S
O1909      C1921   1.283       .  A
O1910     Co1913   2.093       .  S
O1910      C1920   1.297       .  A
O1911     Co1916   1.974       .  S
O1911      C1918   1.267       .  A
O1912     Co1915   1.988       .  S
O1912      C1919   1.252       .  A
Co1913     O1917   1.955       .  S
Co1914     O1917   1.896       .  S
Co1915     O1917   2.011       .  S
Co1916     O1917   1.997       .  S
C1919      C2024   1.428       .  S
C1920      C2064   1.433       .  S
C1921      C2061   1.426       .  S
O1922     Co1942   1.941       .  S
O1922      C1930   1.237       .  A
O1923     Co1943   1.904       .  S
O1923      C1931   1.283       .  A
O1924     Co1944   2.035       .  S
O1924      C1932   1.277       .  A
O1925     Co1945   1.995       .  S
O1925      C1933   1.260       .  A
O1926     Co1943   1.983       .  S
O1926      C1932   1.276       .  A
O1927     Co1942   1.949       .  S
O1927      C1933   1.252       .  A
O1928     Co1945   2.110       .  S
O1928      C1931   1.303       .  A
O1929     Co1944   2.065       .  S
O1929      C1930   1.263       .  A
C1930      C2051   1.452       .  S
C1931      C2050   1.437       .  S
C1932      C2013   1.463       .  S
C1933      C2022   1.410       .  S
O1934     Co1942   2.021       .  S
O1934      C1947   1.265       .  A
O1935      C1948   1.276       .  A
O1936     Co1944   1.949       .  S
O1936      C1949   1.256       .  A
O1937     Co1945   1.978       .  S
O1937      C1950   1.248       .  A
O1938     Co1943   2.031       .  S
O1938      C1950   1.249       .  A
O1939     Co1942   2.078       .  S
O1939      C1949   1.285       .  A
O1940     Co1945   1.986       .  S
O1940      C1947   1.266       .  A
O1941      C1948   1.261       .  A
Co1942     O1946   2.066       .  S
Co1943     O1946   2.016       .  S
Co1944     O1946   2.089       .  S
Co1945     O1946   2.125       .  S
C1947      C2015   1.459       .  S
C1948      C2023   1.424       .  S
C1949      C2059   1.446       .  S
C1950      C2058   1.438       .  S
O1951     Co1971   1.879       .  S
O1951      C1959   1.269       .  A
O1952     Co1972   1.952       .  S
O1952      C1960   1.261       .  A
O1953     Co1973   2.015       .  S
O1953      C1961   1.274       .  A
O1954      C1962   1.251       .  A
O1955     Co1972   1.965       .  S
O1955      C1961   1.263       .  A
O1956      C1962   1.254   1_455  A
O1957     Co1974   2.013       .  S
O1957      C1960   1.279       .  A
O1958     Co1973   2.112       .  S
O1958      C1959   1.302       .  A
C1959      C2027   1.436       .  S
C1960      C2025   1.416       .  S
C1961      C2019   1.433       .  S
C1962      C2010   1.443       .  S
O1963     Co1971   2.136       .  S
O1963      C1976   1.313       .  A
O1964     Co1972   1.993       .  S
O1964      C1977   1.261       .  A
O1965     Co1973   1.878       .  S
O1965      C1978   1.266       .  A
O1966     Co1974   1.986       .  S
O1966      C1979   1.278       .  A
O1967     Co1972   2.008       .  S
O1967      C1979   1.278       .  A
O1968     Co1971   2.135       .  S
O1968      C1978   1.313       .  A
O1969     Co1974   1.900       .  S
O1969      C1976   1.285       .  A
O1970     Co1973   1.997       .  S
O1970      C1977   1.266       .  A
Co1971     O1975   2.018       .  S
Co1972     O1975   1.995       .  S
Co1973     O1975   1.967       .  S
Co1974     O1975   1.921       .  S
C1977      C2012   1.436       .  S
C1978      C2039   1.459       .  S
C1979      C2037   1.437       .  S
O1980     Co2000   1.947       .  S
O1980      C1988   1.241       .  A
O1981     Co2001   1.908       .  S
O1981      C1989   1.260       .  A
O1982     Co2002   1.970       .  S
O1982      C1990   1.253       .  A
O1983     Co2003   2.041       .  S
O1983      C1991   1.277       .  A
O1984     Co2001   1.964       .  S
O1984      C1990   1.252       .  A
O1985     Co2000   1.960       .  S
O1985      C1991   1.258       .  A
O1986     Co2003   2.088       .  S
O1986      C1989   1.283       .  A
O1987     Co2002   2.041       .  S
O1987      C1988   1.267       .  A
C1988      C2031   1.425       .  S
C1989      C2030   1.423       .  S
C1990      C2017   1.416       .  S
C1991      C2009   1.440       .  S
O1992     Co2000   1.993       .  S
O1992      C2005   1.268       .  A
O1993     Co2001   2.058       .  S
O1993      C2006   1.294       .  A
O1994     Co2002   1.936       .  S
O1994      C2007   1.244       .  A
O1995     Co2003   1.943       .  S
O1995      C2008   1.284       .  A
O1996     Co2001   2.111       .  S
O1996      C2008   1.306       .  A
O1997     Co2000   2.081       .  S
O1997      C2007   1.283       .  A
O1998     Co2003   2.004       .  S
O1998      C2005   1.283       .  A
O1999     Co2002   1.945       .  S
O1999      C2006   1.255       .  A
Co2000     O2004   2.010       .  S
Co2001     O2004   1.975       .  S
Co2002     O2004   2.072       .  S
Co2003     O2004   2.039       .  S
C2005      C2016   1.453       .  S
C2006      C2011   1.432       .  S
C2007      C2035   1.440       .  S
C2008      C2034   1.452       .  S
C2009      C2010   1.211       .  T
C2011      C2012   1.205       .  T
C2015      C2016   1.220       .  T
C2017      C2018   1.196       .  T
C2019      C2020   1.206       .  T
C2021      C2022   1.192       .  T
C2023      C2024   1.201       .  T
C2029      C2030   1.201       .  T
C2031      C2032   1.203       .  T
C2033      C2034   1.219       .  T
C2035      C2036   1.213       .  T
C2037      C2038   1.209       .  T
C2039      C2040   1.222       .  T
C2041      C2338   1.191       .  T
C2042      C2337   1.191       .  T
C2043      C2158   1.427       .  S
C2043      C2044   1.202       .  T
C2045      C2046   1.208       .  T
C2047      C2048   1.208       .  T
C2049      C2050   1.208       .  T
C2051      C2052   1.218       .  T
C2055      C2056   1.212       .  T
C2056      C2130   1.443   1_556  S
C2061      C2062   1.199       .  T
C2063      C2064   1.204       .  T
C2067      C2068   1.191       .  T
C2068      C2111   1.409       .  S
C2069      C2070   1.205   1_556  T
C2071      C2072   1.210       .  T
O2073     Co2093   1.994       .  S
O2074      C2082   1.248       .  A
O2075     Co2095   1.990       .  S
O2075      C2083   1.279       .  A
O2076     Co2096   1.912       .  S
O2076      C2084   1.274       .  A
O2077     Co2094   2.024       .  S
O2077      C2083   1.286       .  A
O2078     Co2093   2.101       .  S
O2078      C2084   1.301       .  A
O2080     Co2095   1.978       .  S
O2080      C2081   1.270   1_556  A
C2081      C2367   1.439       .  S
C2082      C2363   1.406       .  S
C2083      C2353   1.443       .  S
C2084      C2356   1.451       .  S
O2085     Co2093   1.886       .  S
O2085      C2098   1.264       .  A
O2086     Co2094   1.983       .  S
O2086      C2099   1.271       .  A
O2087     Co2095   2.010       .  S
O2088     Co2096   2.120       .  S
O2088      C2101   1.309       .  A
O2089     Co2094   1.892       .  S
O2090     Co2093   1.990       .  S
O2090      C2100   1.261       .  A
O2091     Co2096   2.093       .  S
O2091      C2098   1.297       .  A
O2092     Co2095   1.972       .  S
O2092      C2099   1.265       .  A
Co2093     O2097   1.967       .  S
Co2096     O2097   2.023       .  S
C2098      C2359   1.430       .  S
C2099      C2358   1.416       .  S
C2100      C2365   1.430       .  S
C2101      C2362   1.445       .  S
O2102     Co2122   2.078       .  S
O2102      C2110   1.306       .  A
O2103     Co2123   1.987       .  S
O2104     Co2124   2.119       .  S
O2104      C2112   1.310       .  A
O2105     Co2125   1.910       .  S
O2105      C2113   1.289       .  A
O2106     Co2123   1.882       .  S
O2106      C2112   1.275       .  A
O2107     Co2122   2.092       .  S
O2107      C2113   1.313       .  A
O2108     Co2125   1.991       .  S
O2108      C2111   1.227       .  A
O2109     Co2124   1.921       .  S
C2110      C2349   1.445       .  S
C2112      C2345   1.439       .  S
C2113      C2348   1.456       .  S
O2114     Co2122   1.971       .  S
O2114      C2127   1.267       .  A
O2115     Co2123   1.990       .  S
O2115      C2128   1.269       .  A
O2116     Co2124   1.967       .  S
O2117     Co2125   1.975       .  S
O2118     Co2123   2.053       .  S
O2118      C2130   1.295   1_556  A
O2119     Co2122   1.987       .  S
O2119      C2129   1.246       .  A
O2120     Co2125   2.012       .  S
O2120      C2127   1.269       .  A
O2121     Co2124   1.981       .  S
O2121      C2128   1.267       .  A
Co2122     O2126   2.087       .  S
Co2125     O2126   1.982       .  S
C2127      C2343   1.440       .  S
C2128      C2342   1.436       .  S
C2129      C2366   1.430       .  S
O2131     Co2151   1.984       .  S
O2132     Co2152   1.976       .  S
O2132      C2140   1.239       .  A
O2133     Co2153   1.993       .  S
O2133      C2141   1.278       .  A
O2134     Co2154   1.903       .  S
O2134      C2142   1.274       .  A
O2135     Co2152   2.045       .  S
O2135      C2141   1.292       .  A
O2136     Co2151   2.108       .  S
O2136      C2142   1.305       .  A
O2137     Co2154   1.983       .  S
O2138     Co2153   1.986       .  S
O2138      C2139   1.268   1_556  A
C2139      C2368   1.440       .  S
C2140      C2338   1.405       .  S
C2141      C2329   1.459       .  S
C2142      C2332   1.448       .  S
O2143     Co2151   1.896       .  S
O2143      C2156   1.259       .  A
O2144     Co2152   1.982       .  S
O2144      C2157   1.267       .  A
O2145     Co2153   2.009       .  S
O2145      C2158   1.273       .  A
O2146     Co2154   2.137       .  S
O2147     Co2152   1.881       .  S
O2147      C2159   1.286       .  A
O2148     Co2151   1.980       .  S
O2149     Co2154   2.126       .  S
O2149      C2156   1.305       .  A
O2150     Co2153   2.000       .  S
O2150      C2157   1.269       .  A
Co2152     O2155   1.915       .  S
Co2153     O2155   2.013       .  S
C2156      C2336   1.459       .  S
C2157      C2334   1.439       .  S
C2159      C2350   1.446       .  S
O2160     Co2180   2.008       .  S
O2160      C2168   1.269       .  A
O2161     Co2181   1.983       .  S
O2162     Co2182   1.969       .  S
O2162      C2170   1.272       .  A
O2163     Co2183   1.901       .  S
O2163      C2171   1.278       .  A
O2164     Co2181   2.019       .  S
O2164      C2170   1.285       .  A
O2165     Co2180   2.074       .  S
O2165      C2171   1.297       .  A
O2166     Co2183   1.977       .  S
O2166      C2169   1.244       .  A
O2167     Co2182   1.976       .  S
C2169      C2337   1.406       .  S
C2170      C2325   1.426       .  S
C2171      C2328   1.432       .  S
O2172     Co2180   1.884       .  S
O2172      C2185   1.265       .  A
O2173     Co2181   1.966       .  S
O2173      C2186   1.266       .  A
O2174     Co2182   2.008       .  S
O2175     Co2183   2.143       .  S
O2175      C2188   1.317       .  A
O2176     Co2181   1.874       .  S
O2177     Co2180   1.982       .  S
O2177      C2187   1.260   1_655  A
O2178     Co2183   2.099       .  S
O2178      C2185   1.299       .  A
O2179     Co2182   1.977       .  S
O2179      C2186   1.266       .  A
Co2180     O2184   1.951       .  S
Co2183     O2184   2.021       .  S
C2185      C2324   1.435       .  S
C2186      C2322   1.407   1_655  S
C2188      C2351   1.443       .  S
O2189     Co2209   1.871       .  S
O2189      C2197   1.259       .  A
O2190     Co2210   1.981       .  S
O2190      C2198   1.273       .  A
O2191     Co2211   2.104       .  S
O2191      C2199   1.305       .  A
O2192     Co2212   1.981       .  S
O2192      C2200   1.259       .  A
O2193     Co2210   1.880       .  S
O2193      C2199   1.282       .  A
O2194     Co2209   1.980       .  S
O2194      C2200   1.259       .  A
O2195     Co2212   2.013       .  S
O2195      C2198   1.277       .  A
O2196     Co2211   2.117       .  S
O2196      C2197   1.303       .  A
C2197      C2344   1.431       .  S
C2198      C2341   1.437       .  S
C2199      C2316   1.435       .  S
C2200      C2317   1.411       .  S
O2201     Co2209   1.970       .  S
O2201      C2214   1.263       .  A
O2202     Co2210   1.993       .  S
O2202      C2215   1.252       .  A
O2203     Co2211   1.890       .  S
O2203      C2216   1.270       .  A
O2204     Co2212   1.959       .  S
O2204      C2217   1.265       .  A
O2205     Co2210   2.020       .  S
O2205      C2217   1.283       .  A
O2206     Co2209   2.093       .  S
O2206      C2216   1.297       .  A
O2207     Co2212   1.974       .  S
O2207      C2214   1.267       .  A
O2208     Co2211   1.988       .  S
O2208      C2215   1.252       .  A
Co2209     O2213   1.955       .  S
Co2210     O2213   1.896       .  S
Co2211     O2213   2.011       .  S
Co2212     O2213   1.997       .  S
C2215      C2320   1.428       .  S
C2216      C2360   1.433       .  S
C2217      C2357   1.426       .  S
O2218     Co2238   1.941       .  S
O2218      C2226   1.237       .  A
O2219     Co2239   1.904       .  S
O2219      C2227   1.283       .  A
O2220     Co2240   2.035       .  S
O2220      C2228   1.277       .  A
O2221     Co2241   1.995       .  S
O2221      C2229   1.260       .  A
O2222     Co2239   1.983       .  S
O2222      C2228   1.276       .  A
O2223     Co2238   1.949       .  S
O2223      C2229   1.252       .  A
O2224     Co2241   2.110       .  S
O2224      C2227   1.303       .  A
O2225     Co2240   2.065       .  S
O2225      C2226   1.263       .  A
C2226      C2347   1.452       .  S
C2227      C2346   1.437       .  S
C2228      C2309   1.463       .  S
C2229      C2318   1.410       .  S
O2230     Co2238   2.021       .  S
O2230      C2243   1.265       .  A
O2231      C2244   1.276       .  A
O2232     Co2240   1.949       .  S
O2232      C2245   1.256       .  A
O2233     Co2241   1.978       .  S
O2233      C2246   1.248       .  A
O2234     Co2239   2.031       .  S
O2234      C2246   1.249       .  A
O2235     Co2238   2.078       .  S
O2235      C2245   1.285       .  A
O2236     Co2241   1.986       .  S
O2236      C2243   1.266       .  A
O2237      C2244   1.261       .  A
Co2238     O2242   2.066       .  S
Co2239     O2242   2.016       .  S
Co2240     O2242   2.089       .  S
Co2241     O2242   2.125       .  S
C2243      C2311   1.459       .  S
C2244      C2319   1.424       .  S
C2245      C2355   1.446       .  S
C2246      C2354   1.438       .  S
O2247     Co2267   1.879       .  S
O2247      C2255   1.269       .  A
O2248     Co2268   1.952       .  S
O2248      C2256   1.261       .  A
O2249     Co2269   2.015       .  S
O2249      C2257   1.274       .  A
O2250      C2258   1.251       .  A
O2251     Co2268   1.965       .  S
O2251      C2257   1.263       .  A
O2252      C2258   1.254   1_455  A
O2253     Co2270   2.013       .  S
O2253      C2256   1.279       .  A
O2254     Co2269   2.112       .  S
O2254      C2255   1.302       .  A
C2255      C2323   1.436       .  S
C2256      C2321   1.416       .  S
C2257      C2315   1.433       .  S
C2258      C2306   1.443       .  S
O2259     Co2267   2.136       .  S
O2259      C2272   1.313       .  A
O2260     Co2268   1.993       .  S
O2260      C2273   1.261       .  A
O2261     Co2269   1.878       .  S
O2261      C2274   1.266       .  A
O2262     Co2270   1.986       .  S
O2262      C2275   1.278       .  A
O2263     Co2268   2.008       .  S
O2263      C2275   1.278       .  A
O2264     Co2267   2.135       .  S
O2264      C2274   1.313       .  A
O2265     Co2270   1.900       .  S
O2265      C2272   1.285       .  A
O2266     Co2269   1.997       .  S
O2266      C2273   1.266       .  A
Co2267     O2271   2.018       .  S
Co2268     O2271   1.995       .  S
Co2269     O2271   1.967       .  S
Co2270     O2271   1.921       .  S
C2273      C2308   1.436       .  S
C2274      C2335   1.459       .  S
C2275      C2333   1.437       .  S
O2276     Co2296   1.947       .  S
O2276      C2284   1.241       .  A
O2277     Co2297   1.908       .  S
O2277      C2285   1.260       .  A
O2278     Co2298   1.970       .  S
O2278      C2286   1.253       .  A
O2279     Co2299   2.041       .  S
O2279      C2287   1.277       .  A
O2280     Co2297   1.964       .  S
O2280      C2286   1.252       .  A
O2281     Co2296   1.960       .  S
O2281      C2287   1.258       .  A
O2282     Co2299   2.088       .  S
O2282      C2285   1.283       .  A
O2283     Co2298   2.041       .  S
O2283      C2284   1.267       .  A
C2284      C2327   1.425       .  S
C2285      C2326   1.423       .  S
C2286      C2313   1.416       .  S
C2287      C2305   1.440       .  S
O2288     Co2296   1.993       .  S
O2288      C2301   1.268       .  A
O2289     Co2297   2.058       .  S
O2289      C2302   1.294       .  A
O2290     Co2298   1.936       .  S
O2290      C2303   1.244       .  A
O2291     Co2299   1.943       .  S
O2291      C2304   1.284       .  A
O2292     Co2297   2.111       .  S
O2292      C2304   1.306       .  A
O2293     Co2296   2.081       .  S
O2293      C2303   1.283       .  A
O2294     Co2299   2.004       .  S
O2294      C2301   1.283       .  A
O2295     Co2298   1.945       .  S
O2295      C2302   1.255       .  A
Co2296     O2300   2.010       .  S
Co2297     O2300   1.975       .  S
Co2298     O2300   2.072       .  S
Co2299     O2300   2.039       .  S
C2301      C2312   1.453       .  S
C2302      C2307   1.432       .  S
C2303      C2331   1.440       .  S
C2304      C2330   1.452       .  S
C2305      C2306   1.211       .  T
C2307      C2308   1.205       .  T
C2311      C2312   1.220       .  T
C2313      C2314   1.196       .  T
C2315      C2316   1.206       .  T
C2317      C2318   1.192       .  T
C2319      C2320   1.201       .  T
C2325      C2326   1.201       .  T
C2327      C2328   1.203       .  T
C2329      C2330   1.219       .  T
C2331      C2332   1.213       .  T
C2333      C2334   1.209       .  T
C2335      C2336   1.222       .  T
C2339      C2340   1.202       .  T
C2341      C2342   1.208       .  T
C2343      C2344   1.208       .  T
C2345      C2346   1.208       .  T
C2347      C2348   1.218       .  T
C2351      C2352   1.212       .  T
C2357      C2358   1.199       .  T
C2359      C2360   1.204       .  T
C2363      C2364   1.191       .  T
C2365      C2366   1.205       .  T
C2367      C2368   1.210       .  T
