geometry optimzed in LAMMPS
_audit_creation_date              2020-11-30 
_audit_creation_method            'lammps2cif' 
_symmetry_space_group_name_H-M    'P1' 
_symmetry_Int_Tables_number       1 
_symmetry_cell_setting            triclinic 
loop_ 
_symmetry_equiv_pos_as_xyz 
  x,y,z 
_cell_length_a                    64.62854171 
_cell_length_b                    49.166504490902184 
_cell_length_c                    56.89968876343487 
_cell_angle_alpha                 89.95980982046137 
_cell_angle_beta                  139.46595584845232 
_cell_angle_gamma                 90.41443358132216 
loop_ 
_atom_site_label 
_atom_site_type_symbol 
_atom_site_fract_x 
_atom_site_fract_y 
_atom_site_fract_z 
_atom_site_charge 
O1          O  0.12686859  0.41312113  0.39818780    -0.57300
C2          C  0.16228918  0.48859290  0.45578874     0.75400
O3          O  0.15799594  0.42380990  0.49920678    -0.58400
C4          C  0.12891199  0.38847159  0.40642918     0.75300
C5          C  0.22662034  0.42018870  0.50369518     0.77700
Cd6        Cd  0.16182546  0.43040366  0.45942326     1.37500
O7          O  0.14506298  0.47482695  0.42687239    -0.57300
O8          O  0.20578792  0.42447885  0.47011692    -0.56100
C9          C  0.12800824  0.42667831  0.47358432     0.77700
O10         O  0.21715489  0.41856770  0.51664802    -0.58400
O11         O  0.17869976  0.47544827  0.48454668    -0.56900
O12         O  0.14678807  0.38333001  0.43919476    -0.56900
O13         O  0.11443861  0.43005855  0.44228231    -0.56100
O14         O  0.36197702  0.41119469  0.13221404    -0.57300
C15         C  0.32968628  0.48514933  0.08232494     0.75400
O16         O  0.32269572  0.41348371  0.02577291    -0.58400
C17         C  0.36213604  0.38679429  0.12527699     0.75300
C18         C  0.26037168  0.41948875  0.52667739     0.77700
Cd19       Cd  0.32581786  0.42766616  0.07034125     1.37500
O20         O  0.35249114  0.47022399  0.10853903    -0.57300
O21         O  0.28190561  0.42146743  0.06066473    -0.56100
C22         C  0.34465745  0.42960313  0.03815408     0.78900
O23         O  0.26930602  0.41892407  0.51316292    -0.58400
O24         O  0.30574900  0.47328550  0.05280562    -0.56900
O25         O  0.34596597  0.38133004  0.09315740    -0.56900
O26         O  0.35897803  0.44271215  0.06647501    -0.56100
C27         C  0.99571102  0.00745613  0.99559358     0.02800
C28         C  0.98774632  0.48001610  0.98358072     0.02800
C29         C  0.96399689  0.46642459  0.97585310    -0.17700
C30         C  0.94878662  0.47918750  0.98151735     0.02800
C31         C  0.95670169  0.00708593  0.99365142     0.02800
C32         C  0.98012479  0.02065873  0.00060374    -0.17700
H33         H  0.98698887  0.04129859  0.01111361     0.04800
H34         H  0.95751353  0.44572391  0.96560416     0.04800
O35         O  0.13154587  0.09304711  0.40571470    -0.57300
C36         C  0.16315844  0.01824198  0.45736300     0.75400
O37         O  0.22170896  0.08442971  0.52529938    -0.58400
C38         C  0.13211822  0.11755000  0.41311228     0.75300
C39         C  0.13233000  0.07306093  0.48236332     0.77700
Cd40       Cd  0.16515990  0.07590291  0.46633558     1.37500
O41         O  0.14649391  0.03330087  0.42980955    -0.57300
O42         O  0.12020871  0.06586552  0.45251203    -0.56100
C43         C  0.23129811  0.08437276  0.51244505     0.77700
O44         O  0.15980573  0.08405016  0.50505882    -0.58400
O45         O  0.18073694  0.03000695  0.48746452    -0.56900
O46         O  0.14826248  0.12292910  0.44530464    -0.56900
O47         O  0.21022034  0.08268116  0.47843745    -0.56100
O48         O  0.36477709  0.09021299  0.14020626    -0.57300
C49         C  0.33029649  0.01498376  0.08380582     0.75400
O50         O  0.27470019  0.08721458  0.52291618    -0.58400
C51         C  0.36481328  0.11463709  0.13301093     0.75300
C52         C  0.35401569  0.07372833  0.05192305     0.77700
Cd53       Cd  0.32981655  0.07319919  0.07826674     1.37500
O54         O  0.35322348  0.02876045  0.11212374    -0.57300
O55         O  0.37211304  0.07242180  0.08525777    -0.56100
C56         C  0.26520903  0.08380691  0.53567477     0.77700
O57         O  0.32465382  0.07692587  0.03064288    -0.58400
O58         O  0.30790540  0.02814972  0.05532476    -0.56900
O59         O  0.34879822  0.11966928  0.10088143    -0.56900
O60         O  0.28603969  0.07786984  0.06879093    -0.56100
O61         O  0.11374785  0.34213160  0.38769862    -0.57300
C62         C  0.07964073  0.26667633  0.33475020     0.75400
O63         O  0.02349976  0.33483582  0.26881991    -0.58400
C64         C  0.11137716  0.36677073  0.37932182     0.75300
C65         C  0.10774105  0.32873471  0.30632627     0.77700
Cd66       Cd  0.07844359  0.32458826  0.32655814     1.37500
O67         O  0.09825535  0.28168011  0.36276206    -0.57300
O68         O  0.12373750  0.32477731  0.33861779    -0.56100
C69         C  0.51301064  0.33404452  0.28061095     0.77700
O70         O  0.07799770  0.33150043  0.28320628    -0.58400
O71         O  0.06126720  0.27848887  0.30474517    -0.56900
O72         O  0.09316334  0.37184804  0.34646787    -0.56900
O73         O  0.03318478  0.33108805  0.31432557    -0.56100
O74         O  0.37927069  0.34115199  0.14600237    -0.57300
C75         C  0.41363993  0.26698132  0.20435407     0.75400
O76         O  0.46769673  0.33663337  0.26679135    -0.58400
C77         C  0.37977112  0.36579404  0.15302703     0.75300
C78         C  0.37749691  0.32398910  0.21973030     0.77700
Cd79       Cd  0.41275715  0.32500994  0.20737664     1.37500
O80         O  0.39929614  0.28058270  0.17628585    -0.57300
O81         O  0.36786676  0.31293865  0.19261827    -0.56100
C82         C  0.47884475  0.33403700  0.25583457     0.77700
O83         O  0.40350656  0.33734352  0.24111101    -0.58400
O84         O  0.42781960  0.28028094  0.23251657    -0.56900
O85         O  0.39584190  0.37148945  0.18508337    -0.56900
O86         O  0.45920212  0.32939987  0.22248823    -0.56100
C87         C  0.20465378  0.24271741  0.24021506     0.02800
C88         C  0.21051888  0.27109810  0.24705700     0.02800
C89         C  0.22882276  0.28434875  0.24570057    -0.17700
C90         C  0.24290506  0.26958288  0.23970365     0.02800
C91         C  0.23802413  0.24116029  0.23406280     0.02800
C92         C  0.21858772  0.22803161  0.23385494    -0.17700
H93         H  0.21507504  0.20618729  0.22981641     0.04800
H94         H  0.23334236  0.30604405  0.25098659     0.04800
O95         O  0.09896618  0.22321426  0.36453944    -0.57300
C96         C  0.11464189  0.13861884  0.38546857     0.75400
O97         O  0.52441335  0.16743327  0.27320960    -0.58400
C98         C  0.07943382  0.23694471  0.33561466     0.75300
C99         C  0.10767888  0.18115588  0.30838320     0.77700
Cd100      Cd  0.07969484  0.17910807  0.33048875     1.37500
O101        O  0.11518897  0.16323620  0.39254644    -0.57300
O102        O  0.12128883  0.19061375  0.33823929    -0.56100
C103        C  0.51414633  0.16907558  0.28522640     0.77700
O104        O  0.08151562  0.16865417  0.28922044    -0.58400
O105        O  0.09811138  0.13289400  0.35324382    -0.56900
O106        O  0.05982749  0.22379969  0.30618324    -0.56900
O107        O  0.03457951  0.17298457  0.31888719    -0.56100
O108        O  0.40040607  0.22206065  0.17859563    -0.57300
C109        C  0.38219916  0.13632963  0.16030428     0.75400
O110        O  0.46893980  0.16765353  0.27189594    -0.58400
C111        C  0.41358316  0.23720601  0.20525717     0.75300
C112        C  0.37646948  0.17889846  0.22205898     0.77700
Cd113      Cd  0.41394546  0.17924050  0.21235420     1.37500
O114        O  0.38159786  0.16072452  0.15248374    -0.57300
O115        O  0.36423386  0.17963005  0.19121749    -0.56100
C116        C  0.47996335  0.16922052  0.26068953     0.77700
O117        O  0.40655057  0.17694319  0.24913225    -0.58400
O118        O  0.39815948  0.13163108  0.19252773    -0.56900
O119        O  0.42657895  0.22548903  0.23365488    -0.56900
O120        O  0.46021899  0.17315398  0.22726353    -0.56100
C121        C  0.18672789  0.22778536  0.24327847    -0.19300
C122        C  0.15443470  0.23323963  0.22072542     0.36900
C123        C  0.14115735  0.22274694  0.23003218    -0.25300
C124        C  0.15916448  0.20664422  0.26084020     0.03300
C125        C  0.19022615  0.19903983  0.28121796     0.28100
C126        C  0.20366956  0.20966620  0.27214328    -0.24400
N127        N  0.13444131  0.24895874  0.18821817    -0.81800
H128        H  0.11693813  0.22791466  0.21377220     0.13900
C129        C  0.14632113  0.19992054  0.27330615     0.03300
N130        N  0.20816658  0.18101481  0.31142931    -0.80400
H131        H  0.22816559  0.20507940  0.28896321     0.18800
C132        C  0.12291631  0.17951294  0.25528383    -0.25200
C133        C  0.11030179  0.17232730  0.26653749     0.36800
C134        C  0.12131954  0.18602218  0.29638807    -0.19200
C135        C  0.14481820  0.20639826  0.31428433    -0.24500
C136        C  0.15706225  0.21382460  0.30290645     0.28200
H137        H  0.11464227  0.16905489  0.23249778     0.13900
N138        N  0.08651653  0.15121300  0.24782617    -0.81800
H139        H  0.15326474  0.21738324  0.33690109     0.18800
N140        N  0.18007447  0.23571357  0.32192126    -0.80400
H141        H  0.08069658  0.14360140  0.22617550     0.34400
H142        H  0.09655507  0.13512118  0.26584458     0.38900
H143        H  0.16887536  0.25328856  0.31826390     0.34400
H144        H  0.18751487  0.23992452  0.31124600     0.31100
H145        H  0.23023731  0.17686406  0.32285410     0.34400
H146        H  0.21301248  0.19107235  0.33139655     0.31100
H147        H  0.14652203  0.25522945  0.18352533     0.38900
H148        H  0.12758321  0.26640797  0.19138372     0.34400
C149        C  0.25498399  0.22490950  0.23085511    -0.19300
C150        C  0.28444739  0.21308056  0.26170745     0.36900
C151        C  0.30304000  0.20230498  0.25958436    -0.25300
C152        C  0.29261317  0.20293323  0.22713285     0.03300
C153        C  0.26171971  0.21262520  0.19540768     0.28100
C154        C  0.24337697  0.22384014  0.19777629    -0.24400
N155        N  0.29600444  0.21333485  0.29546272    -0.81800
H156        H  0.32620402  0.19400469  0.28361730     0.13900
C157        C  0.31513248  0.19497971  0.22760498     0.03300
N158        N  0.24923627  0.21144828  0.16111252    -0.80400
H159        H  0.22038933  0.23255878  0.17404120     0.18800
C160        C  0.30592802  0.17573256  0.20268193    -0.25200
C161        C  0.32612798  0.16932636  0.20122677     0.36800
C162        C  0.35645098  0.18183878  0.22587596    -0.19200
C163        C  0.36624103  0.20006389  0.25182690    -0.24500
C164        C  0.34569809  0.20711623  0.25244419     0.28200
H165        H  0.28277515  0.16594593  0.18401827     0.13900
N166        N  0.31593505  0.15034104  0.17469154    -0.81800
H167        H  0.38925086  0.21014468  0.27036920     0.18800
N168        N  0.35545752  0.22760803  0.27728492    -0.80400
H169        H  0.29292346  0.14314837  0.15839024     0.34400
H170        H  0.33096307  0.13354916  0.18853476     0.38900
H171        H  0.36095104  0.24532533  0.27262872     0.34400
H172        H  0.37627359  0.22107956  0.30349389     0.31100
H173        H  0.22626674  0.21941797  0.14066960     0.34400
H174        H  0.26344071  0.22378440  0.16265095     0.31100
H175        H  0.28071954  0.20104331  0.29227226     0.38900
H176        H  0.31850927  0.20450830  0.31582999     0.34400
C177        C  0.35939720  0.32007368  0.22610696    -0.19300
C178        C  0.36018084  0.33899654  0.24544369     0.36900
C179        C  0.34234297  0.33356737  0.25052612    -0.25300
C180        C  0.32383707  0.30975861  0.23642978     0.03300
C181        C  0.32306698  0.29097611  0.21714587     0.28100
C182        C  0.34091443  0.29626179  0.21230806    -0.24400
N183        N  0.37851471  0.36371716  0.25921622    -0.81800
H184        H  0.34261076  0.34793538  0.26518632     0.13900
C185        C  0.30467714  0.30434849  0.24113523     0.03300
N186        N  0.30446334  0.26637597  0.20299167    -0.80400
H187        H  0.34050663  0.28153897  0.19778684     0.18800
C188        C  0.27174985  0.30860233  0.21134322    -0.25200
C189        C  0.25112567  0.29825713  0.21083053     0.36800
C190        C  0.26390323  0.28388175  0.24097815    -0.19200
C191        C  0.29695588  0.28144342  0.27183876    -0.24500
C192        C  0.31761184  0.29134705  0.27228965     0.28200
H193        H  0.26201752  0.31864288  0.18761383     0.13900
N194        N  0.21727584  0.30154124  0.17951516    -0.81800
H195        H  0.30668486  0.27080817  0.29525609     0.18800
N196        N  0.35124663  0.28750022  0.30446029    -0.80400
H197        H  0.21180487  0.31272974  0.15971447     0.34400
H198        H  0.20706275  0.28224877  0.16841917     0.38900
H199        H  0.35536165  0.26662008  0.30901852     0.34400
H200        H  0.36436958  0.29490416  0.30155207     0.31100
H201        H  0.30770203  0.25413934  0.19097613     0.34400
H202        H  0.28047013  0.27179212  0.18239882     0.31100
H203        H  0.36841140  0.37525529  0.23702739     0.38900
H204        H  0.37667786  0.37526957  0.27298372     0.34400
C205        C  0.19942945  0.28686429  0.25798461    -0.19300
C206        C  0.21180190  0.28184846  0.29124555     0.36900
C207        C  0.19726756  0.29375624  0.29826894    -0.25300
C208        C  0.17111415  0.31097867  0.27298471     0.03300
C209        C  0.16103502  0.31830741  0.24151253     0.28100
C210        C  0.17527280  0.30602128  0.23419932    -0.24400
N211        N  0.23855891  0.26417137  0.31726166    -0.81800
H212        H  0.20560362  0.28882109  0.32296044     0.13900
C213        C  0.15332221  0.31924800  0.27889838     0.03300
N214        N  0.13597594  0.33767677  0.21686344    -0.80400
H215        H  0.16661365  0.31043714  0.20920670     0.18800
C216        C  0.16966264  0.33228531  0.31138395    -0.25200
C217        C  0.15477952  0.33694736  0.32025235     0.36800
C218        C  0.12285695  0.32848427  0.29596224    -0.19200
C219        C  0.10601388  0.31684624  0.26261515    -0.24500
C220        C  0.12110935  0.31154752  0.25415330     0.28200
H221        H  0.19438970  0.33814004  0.33029183     0.13900
N222        N  0.17206140  0.34983388  0.35399498    -0.81800
H223        H  0.08159569  0.31016925  0.24412962     0.18800
N224        N  0.10437152  0.29709685  0.22145105    -0.80400
H225        H  0.19535146  0.35451984  0.36887778     0.34400
H226        H  0.16101007  0.36834288  0.34799951     0.38900
H227        H  0.08089517  0.29291098  0.20624072     0.34400
H228        H  0.11542990  0.27830758  0.22883663     0.31100
H229        H  0.13118506  0.34061115  0.19487861     0.34400
H230        H  0.14423599  0.35632755  0.23052448     0.31100
H231        H  0.25809439  0.27337489  0.32582223     0.38900
H232        H  0.24447689  0.26231646  0.34014216     0.34400
C233        C  0.02097625  0.02213910  0.00385363    -0.19300
C234        C  0.01387558  0.04564036  0.98452895     0.36900
C235        C  0.03453996  0.05670949  0.48666290    -0.25300
C236        C  0.06610047  0.04344366  0.01083829     0.03300
C237        C  0.07408779  0.02116639  0.03204765     0.28100
C238        C  0.05167186  0.01110685  0.02894872    -0.24400
N239        N  0.98147022  0.05740898  0.45930294    -0.81800
H240        H  0.02777506  0.07372768  0.46985524     0.13900
C241        C  0.08234808  0.05188693  0.50293223     0.03300
N242        N  0.10425384  0.00806214  0.05515469    -0.80400
H243        H  0.05832291  0.49461666  0.04484982     0.18800
C244        C  0.10495702  0.07368941  0.02303078    -0.25200
C245        C  0.12136841  0.08147460  0.01654000     0.36800
C246        C  0.11526527  0.06718284  0.48999583    -0.19200
C247        C  0.09029667  0.04791292  0.46776563    -0.24500
C248        C  0.07382656  0.04018267  0.47390084     0.28200
H249        H  0.10707213  0.08594724  0.04060566     0.13900
N250        N  0.14105653  0.10554240  0.03329737    -0.81800
H251        H  0.08371353  0.03846443  0.44556434     0.18800
N252        N  0.04870313  0.02011829  0.45105001    -0.80400
H253        H  0.14142000  0.11463255  0.05022033     0.34400
H254        H  0.13051226  0.11948350  0.01278510     0.38900
H255        H  0.04616650  0.01267999  0.43174659     0.34400
H256        H  0.02736934  0.02979367  0.43670504     0.31100
H257        H  0.10608893  0.49315453  0.06636709     0.34400
H258        H  0.12203043  0.02207319  0.07519007     0.31100
H259        H  0.46475292  0.04317211  0.43881654     0.38900
H260        H  0.47937280  0.07454117  0.44672890     0.34400
C261        C  0.44288433  0.02097908  0.00236994    -0.19300
C262        C  0.42306504  0.04375924  0.98262595     0.36900
C263        C  0.40888740  0.05523488  0.99039670    -0.25300
C264        C  0.41375872  0.04392768  0.01691227     0.03300
C265        C  0.43317247  0.02089976  0.03623986     0.28100
C266        C  0.44812508  0.01003825  0.02930616    -0.24400
N267        N  0.41690867  0.05468287  0.95433418    -0.81800
H268        H  0.39346272  0.07264358  0.97527798     0.13900
C269        C  0.39702721  0.05528866  0.02295858     0.03300
N270        N  0.43634404  0.00787387  0.06149318    -0.80400
H271        H  0.46279007  0.49157548  0.04427755     0.18800
C272        C  0.36550552  0.04717027  0.00002154    -0.25200
C273        C  0.34999941  0.05457830  0.00751368     0.36800
C274        C  0.36675318  0.07007065  0.03895716    -0.19200
C275        C  0.39769740  0.07948080  0.06065683    -0.24500
C276        C  0.41285342  0.07259655  0.05259796     0.28200
H277        H  0.35342292  0.03418707  0.97696464     0.13900
N278        N  0.31763724  0.04553613  0.48375533    -0.81800
H279        H  0.41028873  0.09180424  0.08436520     0.18800
N280        N  0.44404129  0.08323537  0.07412633    -0.80400
H281        H  0.30880634  0.03455297  0.46176904     0.34400
H282        H  0.31807357  0.03202123  0.49830891     0.38900
H283        H  0.45198087  0.09620299  0.09435686     0.34400
H284        H  0.45992725  0.06705717  0.08730618     0.31100
H285        H  0.44924790  0.48959168  0.07158138     0.34400
H286        H  0.44871731  0.02108456  0.08334474     0.31100
H287        H  0.40468850  0.03977407  0.93416332     0.38900
H288        H  0.40176748  0.07137905  0.94239913     0.34400
C289        C  0.35280031  0.43360200  0.02018586    -0.19300
C290        C  0.35998833  0.45983891  0.01747792     0.36900
C291        C  0.36855718  0.46294947  0.00138377    -0.25300
C292        C  0.37063049  0.44046963  0.98818163     0.03300
C293        C  0.36211584  0.41439276  0.98921409     0.28100
C294        C  0.35297760  0.41122089  0.00500354    -0.24400
N295        N  0.35837151  0.48380836  0.03032563    -0.81800
H296        H  0.37500278  0.48304120  0.00058000     0.13900
C297        C  0.38598388  0.44463959  0.97829158     0.03300
N298        N  0.36324030  0.39133921  0.97471180    -0.80400
H299        H  0.34688072  0.39118316  0.00640373     0.18800
C300        C  0.41578931  0.43287992  0.00020534    -0.25200
C301        C  0.43578706  0.44220621  0.99935826     0.36800
C302        C  0.42550289  0.46360996  0.97588093    -0.19200
C303        C  0.39436669  0.47338640  0.95131162    -0.24500
C304        C  0.37453547  0.46422982  0.95249439     0.28200
H305        H  0.42455582  0.41797707  0.02016536     0.13900
N306        N  0.96757170  0.43191022  0.02466985    -0.81800
H307        H  0.38661383  0.48977544  0.43336548     0.18800
N308        N  0.34375613  0.47600710  0.42949297    -0.80400
H309        H  0.97224156  0.41790248  0.04206625     0.34400
H310        H  0.96873628  0.42102718  0.00994473     0.38900
H311        H  0.33915895  0.49057503  0.41260070     0.34400
H312        H  0.32681168  0.46048225  0.41271522     0.31100
H313        H  0.35635054  0.37361959  0.97766548     0.34400
H314        H  0.34639862  0.39439992  0.94692676     0.31100
H315        H  0.33582233  0.48458997  0.01859339     0.38900
H316        H  0.37565525  0.48280593  0.05840163     0.34400
C317        C  0.00409359  0.46528327  0.97873250    -0.19300
C318        C  0.99941200  0.47191217  0.95078349     0.36900
C319        C  0.01975093  0.46109485  0.45154227    -0.25300
C320        C  0.04486880  0.44394739  0.97968129     0.03300
C321        C  0.04846639  0.43613544  0.00643019     0.28100
C322        C  0.02776357  0.44674133  0.00550532    -0.24400
N323        N  0.97376339  0.98892221  0.42082866    -0.81800
H324        H  0.01669722  0.46676428  0.43063755     0.13900
C325        C  0.06749552  0.43539090  0.48103424     0.03300
N326        N  0.07353225  0.41802490  0.03475893    -0.80400
H327        H  0.03112396  0.44172346  0.02678723     0.18800
C328        C  0.09941922  0.44387128  0.00993742    -0.25200
C329        C  0.12038901  0.43994407  0.00912937     0.36800
C330        C  0.10917930  0.42712044  0.47913345    -0.19200
C331        C  0.07793703  0.41674499  0.45147485    -0.24500
C332        C  0.05698641  0.42067381  0.45219794     0.28200
H333        H  0.10740950  0.45506118  0.03217645     0.13900
N334        N  0.15234286  0.45065483  0.03770594    -0.81800
H335        H  0.06956894  0.40624267  0.42865237     0.18800
N336        N  0.02479489  0.41052469  0.42331145    -0.80400
H337        H  0.15683344  0.45948886  0.05797996     0.34400
H338        H  0.15411290  0.46634468  0.02686976     0.38900
H339        H  0.02075092  0.40030840  0.40397298     0.34400
H340        H  0.02201275  0.39612755  0.43430651     0.31100
H341        H  0.07303064  0.41447937  0.05244403     0.34400
H342        H  0.06904789  0.39930874  0.02276067     0.31100
H343        H  0.95881632  0.99438807  0.42174960     0.38900
H344        H  0.98399621  0.00680356  0.42302792     0.34400
O345        O  0.12683401  0.41318645  0.89786741    -0.57300
C346        C  0.16208459  0.48857929  0.95567353     0.75400
O347        O  0.15790305  0.42349674  0.99890696    -0.58400
C348        C  0.12891257  0.38851526  0.90606923     0.75300
C349        C  0.22666474  0.42032164  0.00354971     0.77700
Cd350      Cd  0.16177381  0.43036705  0.95917685     1.37500
O351        O  0.14521217  0.47485647  0.92680094    -0.57300
O352        O  0.20588851  0.42481888  0.97002520    -0.56100
C353        C  0.12791978  0.42640238  0.97332489     0.77700
O354        O  0.21711723  0.41846852  0.01639690    -0.58400
O355        O  0.17817368  0.47538864  0.98431949    -0.56900
O356        O  0.14680134  0.38332973  0.93882659    -0.56900
O357        O  0.11434919  0.42988776  0.94203253    -0.56100
O358        O  0.36187714  0.41133361  0.63207430    -0.57300
C359        C  0.32941044  0.48518376  0.58200325     0.75400
O360        O  0.32244149  0.41353631  0.52552046    -0.58400
C361        C  0.36206323  0.38692949  0.62517469     0.75300
C362        C  0.26044187  0.41960035  0.02660504     0.77700
Cd363      Cd  0.32563659  0.42769660  0.57015969     1.37500
O364        O  0.35219215  0.47026855  0.60825637    -0.57300
O365        O  0.28187233  0.42157737  0.56072036    -0.56100
C366        C  0.34445381  0.42961005  0.53795377     0.78900
O367        O  0.26944762  0.41919711  0.01316571    -0.58400
O368        O  0.30551685  0.47331328  0.55246003    -0.56900
O369        O  0.34588578  0.38142546  0.59306164    -0.56900
O370        O  0.35880006  0.44269265  0.56630020    -0.56100
C371        C  0.99616279  0.00713755  0.49644071     0.02800
C372        C  0.98771106  0.48000085  0.48356979     0.02800
C373        C  0.96397625  0.46642252  0.47586930    -0.17700
C374        C  0.94884480  0.47917715  0.48162982     0.02800
C375        C  0.95707754  0.00637600  0.49435096     0.02800
C376        C  0.98044794  0.02012444  0.50137617    -0.17700
H377        H  0.98702274  0.04082759  0.51165195     0.04800
H378        H  0.95744926  0.44573425  0.46557262     0.04800
O379        O  0.13159053  0.09323475  0.90566546    -0.57300
C380        C  0.16349946  0.01860261  0.95729117     0.75400
O381        O  0.22178260  0.08455172  0.02530851    -0.58400
C382        C  0.13169595  0.11767107  0.91281974     0.75300
C383        C  0.13370998  0.07216770  0.98400535     0.77700
Cd384      Cd  0.16525087  0.07617619  0.96641387     1.37500
O385        O  0.14576260  0.03362182  0.92956240    -0.57300
O386        O  0.12219405  0.06324423  0.95501808    -0.56100
C387        C  0.23136025  0.08464791  0.01244455     0.77700
O388        O  0.15970858  0.08548684  0.00488856    -0.58400
O389        O  0.18216802  0.03040451  0.98758819    -0.56900
O390        O  0.14740900  0.12301872  0.94484145    -0.56900
O391        O  0.21027360  0.08312056  0.97842387    -0.56100
O392        O  0.36487184  0.09028275  0.64000062    -0.57300
C393        C  0.33048632  0.01488881  0.58374088     0.75400
O394        O  0.27483169  0.08747327  0.02302140    -0.58400
C395        C  0.36476722  0.11469989  0.63266581     0.75300
C396        C  0.35384332  0.07368497  0.55162136     0.77700
Cd397      Cd  0.32976368  0.07311842  0.57808664     1.37500
O398        O  0.35323105  0.02872027  0.61210101    -0.57300
O399        O  0.37197210  0.07241225  0.58496784    -0.56100
C400        C  0.26527034  0.08403767  0.03570041     0.77700
O401        O  0.32448066  0.07684843  0.53036200    -0.58400
O402        O  0.30818151  0.02800406  0.55516502    -0.56900
O403        O  0.34864288  0.11966025  0.60047842    -0.56900
O404        O  0.28604817  0.07771600  0.56879862    -0.56100
O405        O  0.11374773  0.34219076  0.88730076    -0.57300
C406        C  0.07953633  0.26676340  0.83440748     0.75400
O407        O  0.02336222  0.33480426  0.76844676    -0.58400
C408        C  0.11137719  0.36683283  0.87893589     0.75300
C409        C  0.10762645  0.32877908  0.80591124     0.77700
Cd410      Cd  0.07835452  0.32464756  0.82616169     1.37500
O411        O  0.09805961  0.28178710  0.86239785    -0.57300
O412        O  0.12359445  0.32464895  0.83816273    -0.56100
C413        C  0.51294176  0.33407401  0.78031723     0.77700
O414        O  0.07790334  0.33168941  0.78281575    -0.58400
O415        O  0.06128521  0.27854544  0.80440123    -0.56900
O416        O  0.09313917  0.37192306  0.84607735    -0.56900
O417        O  0.03316871  0.33116755  0.81404763    -0.56100
O418        O  0.37914285  0.34130274  0.64590676    -0.57300
C419        C  0.41349662  0.26719793  0.70400725     0.75400
O420        O  0.46772726  0.33664566  0.76667648    -0.58400
C421        C  0.37972657  0.36596052  0.65295037     0.75300
C422        C  0.37759994  0.32418612  0.71981466     0.77700
Cd423      Cd  0.41272311  0.32519834  0.70727909     1.37500
O424        O  0.39915647  0.28086415  0.67598530    -0.57300
O425        O  0.36788395  0.31320142  0.69262430    -0.56100
C426        C  0.47879440  0.33411009  0.75562040     0.77700
O427        O  0.40363556  0.33750021  0.74119875    -0.58400
O428        O  0.42769409  0.28042747  0.73221899    -0.56900
O429        O  0.39589565  0.37169221  0.68503698    -0.56900
O430        O  0.45908171  0.32959260  0.72223634    -0.56100
C431        C  0.20435847  0.24273166  0.73967173     0.02800
C432        C  0.21029106  0.27110558  0.74657012     0.02800
C433        C  0.22863241  0.28432185  0.74525140    -0.17700
C434        C  0.24269874  0.26953488  0.73925027     0.02800
C435        C  0.23773880  0.24112310  0.73352524     0.02800
C436        C  0.21825951  0.22802311  0.73327644    -0.17700
H437        H  0.21469675  0.20618485  0.72919125     0.04800
H438        H  0.23321611  0.30600741  0.75060121     0.04800
O439        O  0.09886802  0.22332033  0.86423344    -0.57300
C440        C  0.11426014  0.13871628  0.88514008     0.75400
O441        O  0.52423095  0.16756206  0.77278410    -0.58400
C442        C  0.07928984  0.23703938  0.83529947     0.75300
C443        C  0.10754163  0.18136552  0.80812995     0.77700
Cd444      Cd  0.07949750  0.17921758  0.83016638     1.37500
O445        O  0.11452365  0.16329486  0.89208170    -0.57300
O446        O  0.12113158  0.19083971  0.83797307    -0.56100
C447        C  0.51390613  0.16924340  0.78473294     0.77700
O448        O  0.08141908  0.16880015  0.78900346    -0.58400
O449        O  0.09811828  0.13302882  0.85305026    -0.56900
O450        O  0.05960377  0.22388731  0.80587371    -0.56900
O451        O  0.03429351  0.17315799  0.81838214    -0.56100
O452        O  0.40018818  0.22232640  0.67809562    -0.57300
C453        C  0.38209140  0.13646161  0.65986852     0.75400
O454        O  0.46867854  0.16794243  0.77134429    -0.58400
C455        C  0.41341746  0.23742369  0.70481520     0.75300
C456        C  0.37631868  0.17910530  0.72162261     0.77700
Cd457      Cd  0.41371886  0.17945718  0.71180317     1.37500
O458        O  0.38137157  0.16085372  0.65194144    -0.57300
O459        O  0.36404342  0.17984705  0.69075883    -0.56100
C460        C  0.47971890  0.16941707  0.76015381     0.77700
O461        O  0.40639993  0.17714797  0.74866049    -0.58400
O462        O  0.39809416  0.13182298  0.69211944    -0.56900
O463        O  0.42644590  0.22565719  0.73319941    -0.56900
O464        O  0.45999333  0.17328438  0.72671841    -0.56100
C465        C  0.18640106  0.22783670  0.74272086    -0.19300
C466        C  0.15416025  0.23342893  0.72027803     0.36900
C467        C  0.14090639  0.22302237  0.72964625    -0.25300
C468        C  0.15887447  0.20685429  0.76039325     0.03300
C469        C  0.18985438  0.19909555  0.78063142     0.28100
C470        C  0.20328304  0.20964567  0.77150710    -0.24400
N471        N  0.13419311  0.24919950  0.68781492    -0.81800
H472        H  0.11673501  0.22829287  0.71347237     0.13900
C473        C  0.14606387  0.20016134  0.77290668     0.03300
N474        N  0.20772736  0.18098562  0.81075022    -0.80400
H475        H  0.22773304  0.20494663  0.78824023     0.18800
C476        C  0.12265127  0.17976826  0.75490332    -0.25200
C477        C  0.11008434  0.17257974  0.76621036     0.36800
C478        C  0.12114775  0.18626249  0.79609411    -0.19200
C479        C  0.14464352  0.20664024  0.81396401    -0.24500
C480        C  0.15685940  0.21405525  0.80254489     0.28200
H481        H  0.11433912  0.16931536  0.73209271     0.13900
N482        N  0.08629675  0.15146971  0.74751495    -0.81800
H483        H  0.15312392  0.21761755  0.83660408     0.18800
N484        N  0.17991005  0.23591154  0.82156538    -0.80400
H485        H  0.08042921  0.14387494  0.72582662     0.34400
H486        H  0.09635517  0.13536639  0.76552376     0.38900
H487        H  0.16874341  0.25351161  0.81791470     0.34400
H488        H  0.18735894  0.24007495  0.81089077     0.31100
H489        H  0.22974086  0.17672676  0.82208210     0.34400
H490        H  0.21269139  0.19102523  0.83080895     0.31100
H491        H  0.14624720  0.25539240  0.68306400     0.38900
H492        H  0.12746239  0.26669258  0.69108020     0.34400
C493        C  0.25470040  0.22486285  0.73032290    -0.19300
C494        C  0.28415184  0.21302190  0.76118195     0.36900
C495        C  0.30281602  0.20232891  0.75912251    -0.25300
C496        C  0.29246415  0.20303732  0.72672079     0.03300
C497        C  0.26158365  0.21274127  0.69497848     0.28100
C498        C  0.24317275  0.22387951  0.69728728    -0.24400
N499        N  0.29562840  0.21318915  0.79488887    -0.81800
H500        H  0.32596994  0.19402007  0.78316426     0.13900
C501        C  0.31501790  0.19510178  0.72723942     0.03300
N502        N  0.24918508  0.21165697  0.66072856    -0.80400
H503        H  0.22020134  0.23261740  0.67354671     0.18800
C504        C  0.30583046  0.17585827  0.70232545    -0.25200
C505        C  0.32604221  0.16945678  0.70088850     0.36800
C506        C  0.35633743  0.18201201  0.72549756    -0.19200
C507        C  0.36612848  0.20021895  0.75146661    -0.24500
C508        C  0.34559432  0.20722584  0.75211501     0.28200
H509        H  0.28268258  0.16606156  0.68366171     0.13900
N510        N  0.31589528  0.15041928  0.67442104    -0.81800
H511        H  0.38913458  0.21030674  0.77001066     0.18800
N512        N  0.35538190  0.22764261  0.77704129    -0.80400
H513        H  0.29290418  0.14318743  0.65815133     0.34400
H514        H  0.33096851  0.13365844  0.68832780     0.38900
H515        H  0.36092497  0.24538666  0.77248162     0.34400
H516        H  0.37617772  0.22105037  0.80322195     0.31100
H517        H  0.22621697  0.21962735  0.64026592     0.34400
H518        H  0.26342627  0.22403683  0.66236234     0.31100
H519        H  0.28031556  0.20085310  0.79161062     0.38900
H520        H  0.31813490  0.20436810  0.81527310     0.34400
C521        C  0.35956556  0.32022178  0.72626887    -0.19300
C522        C  0.36034398  0.33911866  0.74562077     0.36900
C523        C  0.34252144  0.33364569  0.75071789    -0.25300
C524        C  0.32402433  0.30982695  0.73660047     0.03300
C525        C  0.32326462  0.29107335  0.71730433     0.28100
C526        C  0.34111551  0.29639141  0.71248081    -0.24400
N527        N  0.37863403  0.36386398  0.75936623    -0.81800
H528        H  0.34276949  0.34799799  0.76537276     0.13900
C529        C  0.30478149  0.30440454  0.74119055     0.03300
N530        N  0.30463512  0.26648246  0.70308286    -0.80400
H531        H  0.34071131  0.28169003  0.69794594     0.18800
C532        C  0.27186732  0.30869492  0.71133626    -0.25200
C533        C  0.25114290  0.29828377  0.71064123     0.36800
C534        C  0.26380427  0.28380659  0.74067244    -0.19200
C535        C  0.29684267  0.28131965  0.77159934    -0.24500
C536        C  0.31759951  0.29129507  0.77223184     0.28200
H537        H  0.26222386  0.31880958  0.68768915     0.13900
N538        N  0.21730888  0.30160966  0.67925782    -0.81800
H539        H  0.30648343  0.27061631  0.79493541     0.18800
N540        N  0.35121541  0.28742545  0.80447047    -0.80400
H541        H  0.21192862  0.31286750  0.65955582     0.34400
H542        H  0.20708300  0.28233660  0.66806188     0.38900
H543        H  0.35532447  0.26653910  0.80893608     0.34400
H544        H  0.36441644  0.29492558  0.80170550     0.31100
H545        H  0.30787812  0.25427066  0.69105628     0.34400
H546        H  0.28064735  0.27191517  0.68248554     0.31100
H547        H  0.36850640  0.37539946  0.73716474     0.38900
H548        H  0.37677876  0.37540179  0.77312485     0.34400
C549        C  0.19926944  0.28690331  0.75756037    -0.19300
C550        C  0.21161314  0.28183961  0.79079690     0.36900
C551        C  0.19714309  0.29380678  0.79787526    -0.25300
C552        C  0.17108198  0.31112993  0.77266874     0.03300
C553        C  0.16107333  0.31852503  0.74125724     0.28100
C554        C  0.17524318  0.30618070  0.73388535    -0.24400
N555        N  0.23827271  0.26405611  0.81672939    -0.81800
H556        H  0.20544599  0.28883545  0.82253863     0.13900
C557        C  0.15327431  0.31940671  0.77856029     0.03300
N558        N  0.13614848  0.33802008  0.71672481    -0.80400
H559        H  0.16662498  0.31064740  0.70892680     0.18800
C560        C  0.16962124  0.33235146  0.81109622    -0.25200
C561        C  0.15470948  0.33698565  0.81993339     0.36800
C562        C  0.12275823  0.32858117  0.79556873    -0.19200
C563        C  0.10590725  0.31705099  0.76217169    -0.24500
C564        C  0.12102636  0.31178318  0.75373287     0.28200
H565        H  0.19437292  0.33815015  0.83006582     0.13900
N566        N  0.17198931  0.34978293  0.85372044    -0.81800
H567        H  0.08146299  0.31042563  0.74362652     0.18800
N568        N  0.10427470  0.29743104  0.72096851    -0.80400
H569        H  0.19530027  0.35444081  0.86865474     0.34400
H570        H  0.16097918  0.36830228  0.84779155     0.38900
H571        H  0.08077294  0.29329403  0.70570037     0.34400
H572        H  0.11526747  0.27861784  0.72827152     0.31100
H573        H  0.13139643  0.34099540  0.69477296     0.34400
H574        H  0.14452746  0.35662503  0.73050588     0.31100
H575        H  0.25785502  0.27317755  0.82532397     0.38900
H576        H  0.24418588  0.26218431  0.83960522     0.34400
C577        C  0.02070029  0.02232951  0.50381164    -0.19300
C578        C  0.01254139  0.04570883  0.48376776     0.36900
C579        C  0.03670716  0.05620776  0.98851615    -0.25300
C580        C  0.06410003  0.04446075  0.50850972     0.03300
C581        C  0.07320598  0.02234694  0.53048591     0.28100
C582        C  0.05162199  0.01186365  0.52852357    -0.24400
N583        N  0.98307682  0.05795488  0.95977152    -0.81800
H584        H  0.03074011  0.07330321  0.97222978     0.13900
C585        C  0.08532196  0.05040745  0.00641961     0.03300
N586        N  0.10349654  0.00969259  0.55298257    -0.80400
H587        H  0.05835820  0.49448987  0.54515606     0.18800
C588        C  0.10731462  0.07102692  0.52550561    -0.25200
C589        C  0.12386162  0.07894694  0.51924050     0.36800
C590        C  0.11773331  0.06562708  0.99282701    -0.19200
C591        C  0.09841283  0.04213032  0.97688152    -0.24500
C592        C  0.08224641  0.03439144  0.98340555     0.28200
H593        H  0.11359901  0.07997456  0.54771851     0.13900
N594        N  0.14898821  0.09894442  0.54217138    -0.81800
H595        H  0.09587911  0.02959054  0.95913759     0.18800
N596        N  0.06241000  0.01038178  0.96647813    -0.80400
H597        H  0.15257493  0.10519232  0.56263925     0.34400
H598        H  0.14146163  0.11607747  0.52639388     0.38900
H599        H  0.06320565  0.00046080  0.95093079     0.34400
H600        H  0.03889907  0.01658636  0.94855524     0.31100
H601        H  0.10635660  0.49300697  0.56717423     0.34400
H602        H  0.12118185  0.02391029  0.57265682     0.31100
H603        H  0.46617085  0.04402687  0.93888022     0.38900
H604        H  0.48177326  0.07509596  0.94781691     0.34400
C605        C  0.44291520  0.02023966  0.50265466    -0.19300
C606        C  0.42348060  0.04324744  0.48310194     0.36900
C607        C  0.40922662  0.05487997  0.49070220    -0.25300
C608        C  0.41364658  0.04351449  0.51685333     0.03300
C609        C  0.43267433  0.02027646  0.53598998     0.28100
C610        C  0.44770382  0.00924236  0.52923402    -0.24400
N611        N  0.41782134  0.05427058  0.45520299    -0.81800
H612        H  0.39410950  0.07247166  0.47574673     0.13900
C613        C  0.39687788  0.05507014  0.52275230     0.03300
N614        N  0.43544396  0.00727657  0.56093697    -0.80400
H615        H  0.46305250  0.49160848  0.54455386     0.18800
C616        C  0.36529711  0.04709621  0.49970301    -0.25200
C617        C  0.34977552  0.05457343  0.50715303     0.36800
C618        C  0.36656416  0.07002155  0.53863992    -0.19200
C619        C  0.39756586  0.07931911  0.56042666    -0.24500
C620        C  0.41275971  0.07232239  0.55244867     0.28200
H621        H  0.35319664  0.03412764  0.47662830     0.13900
N622        N  0.31789255  0.04547090  0.98416786    -0.81800
H623        H  0.41019457  0.09159549  0.58418100     0.18800
N624        N  0.44407750  0.08273048  0.57417276    -0.80400
H625        H  0.30909172  0.03443194  0.96222992     0.34400
H626        H  0.31837058  0.03199883  0.99878562     0.38900
H627        H  0.45206398  0.09566984  0.59444931     0.34400
H628        H  0.45979932  0.06642939  0.58729311     0.31100
H629        H  0.44961324  0.48962898  0.57196869     0.34400
H630        H  0.44789539  0.02039894  0.58288884     0.31100
H631        H  0.40550200  0.03951128  0.43484387     0.38900
H632        H  0.40294049  0.07114675  0.44338910     0.34400
C633        C  0.35264226  0.43358631  0.52003271    -0.19300
C634        C  0.35991963  0.45980824  0.51741256     0.36900
C635        C  0.36859515  0.46289915  0.50143386    -0.25300
C636        C  0.37064468  0.44041837  0.48821096     0.03300
C637        C  0.36203950  0.41435479  0.48915035     0.28100
C638        C  0.35281989  0.41120063  0.50485528    -0.24400
N639        N  0.35826974  0.48378652  0.53021946    -0.81800
H640        H  0.37511955  0.48297942  0.50071363     0.13900
C641        C  0.38598337  0.44459227  0.47830348     0.03300
N642        N  0.36314804  0.39129837  0.47463689    -0.80400
H643        H  0.34665810  0.39117392  0.50619286     0.18800
C644        C  0.41573381  0.43275493  0.50011466    -0.25200
C645        C  0.43575705  0.44210860  0.49931252     0.36800
C646        C  0.42554422  0.46361148  0.47597446    -0.19200
C647        C  0.39444644  0.47345372  0.45147729    -0.24500
C648        C  0.37460137  0.46428266  0.45262945     0.28200
H649        H  0.42444815  0.41777003  0.51997561     0.13900
N650        N  0.96749229  0.43171934  0.52452583    -0.81800
H651        H  0.38648873  0.48964778  0.93311259     0.18800
N652        N  0.34362708  0.47585809  0.92924183    -0.80400
H653        H  0.97212217  0.41765074  0.54184773     0.34400
H654        H  0.96858232  0.42088260  0.50970917     0.38900
H655        H  0.33897423  0.49034496  0.91224465     0.34400
H656        H  0.32676193  0.46026245  0.91257398     0.31100
H657        H  0.35618340  0.37359233  0.47751503     0.34400
H658        H  0.34635524  0.39439220  0.44686599     0.31100
H659        H  0.33569348  0.48457964  0.51841548     0.38900
H660        H  0.37550187  0.48278395  0.55828473     0.34400
C661        C  0.00400406  0.46524389  0.47868767    -0.19300
C662        C  0.99918108  0.47176373  0.45061235     0.36900
C663        C  0.02003500  0.46127744  0.95177252    -0.25300
C664        C  0.04472344  0.44392785  0.47959025     0.03300
C665        C  0.04843930  0.43619570  0.50644440     0.28100
C666        C  0.02774236  0.44677517  0.50552845    -0.24400
N667        N  0.97324045  0.98917559  0.91989053    -0.81800
H668        H  0.01708846  0.46705731  0.93097583     0.13900
C669        C  0.06754070  0.43523949  0.98100202     0.03300
N670        N  0.07363833  0.41821780  0.53488347    -0.80400
H671        H  0.03118451  0.44183005  0.52688762     0.18800
C672        C  0.09919382  0.44451440  0.50972494    -0.25200
C673        C  0.12021669  0.44068130  0.50899014     0.36800
C674        C  0.10910798  0.42680663  0.97892179    -0.19200
C675        C  0.07768273  0.41685425  0.95102958    -0.24500
C676        C  0.05679537  0.42085989  0.95183864     0.28200
H677        H  0.10697448  0.45598113  0.53168774     0.13900
N678        N  0.15194743  0.45189201  0.53724327    -0.81800
H679        H  0.06912320  0.40663952  0.92795648     0.18800
N680        N  0.02443279  0.41113936  0.92271216    -0.80400
H681        H  0.15626045  0.46103364  0.55726382     0.34400
H682        H  0.15338142  0.46742034  0.52594469     0.38900
H683        H  0.02022337  0.40113596  0.90315277     0.34400
H684        H  0.02137869  0.39664408  0.93336270     0.31100
H685        H  0.07321676  0.41472508  0.55264621     0.34400
H686        H  0.06923916  0.39945887  0.52300821     0.31100
H687        H  0.95847025  0.99509183  0.92092593     0.38900
H688        H  0.98390293  0.00679310  0.92228008     0.34400
O689        O  0.12692378  0.91316391  0.39799096    -0.57300
C690        C  0.16218043  0.98848730  0.45581163     0.75400
O691        O  0.15788146  0.92346286  0.49895071    -0.58400
C692        C  0.12885339  0.88850170  0.40611717     0.75300
C693        C  0.22668264  0.92017951  0.50370581     0.77700
Cd694      Cd  0.16180510  0.93029301  0.45928668     1.37500
O695        O  0.14522581  0.97476798  0.42691915    -0.57300
O696        O  0.20590266  0.92456640  0.47015651    -0.56100
C697        C  0.12791075  0.92645215  0.47335411     0.77700
O698        O  0.21713774  0.91843305  0.51656224    -0.58400
O699        O  0.17835237  0.97529783  0.48447903    -0.56900
O700        O  0.14665387  0.88328933  0.43884292    -0.56900
O701        O  0.11435908  0.92995410  0.44207511    -0.56100
O702        O  0.36166352  0.91128421  0.13212493    -0.57300
C703        C  0.32931748  0.98522151  0.08210676     0.75400
O704        O  0.32256513  0.91382965  0.02577472    -0.58400
C705        C  0.36181857  0.88688398  0.12518465     0.75300
C706        C  0.26045821  0.91948229  0.52676228     0.77700
Cd707      Cd  0.32549361  0.92772638  0.07027533     1.37500
O708        O  0.35199218  0.97028283  0.10843097    -0.57300
O709        O  0.28165026  0.92166033  0.06075393    -0.56100
C710        C  0.34472303  0.92985271  0.03849824     0.78900
O711        O  0.26945192  0.91893370  0.51331270    -0.58400
O712        O  0.30547584  0.97336569  0.05251849    -0.56900
O713        O  0.34563316  0.88140557  0.09306119    -0.56900
O714        O  0.35902482  0.94275979  0.06693097    -0.56100
C715        C  0.99621137  0.50720635  0.99653062     0.02800
C716        C  0.98678288  0.98035357  0.98229555     0.02800
C717        C  0.96286857  0.96703675  0.97446130    -0.17700
C718        C  0.94802157  0.97991683  0.98052673     0.02800
C719        C  0.95711279  0.50640321  0.99442335     0.02800
C720        C  0.98047195  0.52017813  0.00144820    -0.17700
H721        H  0.98701297  0.54088689  0.01170053     0.04800
H722        H  0.95608298  0.94639742  0.96397660     0.04800
O723        O  0.13161111  0.59327847  0.40566607    -0.57300
C724        C  0.16327147  0.51835331  0.45727623     0.75400
O725        O  0.22161547  0.58469455  0.52515780    -0.58400
C726        C  0.13207483  0.61774671  0.41306164     0.75300
C727        C  0.13251760  0.57281442  0.48251300     0.77700
Cd728      Cd  0.16513761  0.57600530  0.46622481     1.37500
O729        O  0.14622598  0.53337531  0.42963045    -0.57300
O730        O  0.12040410  0.56553505  0.45268916    -0.56100
C731        C  0.23125890  0.58453931  0.51236440     0.77700
O732        O  0.15986186  0.58403610  0.50504238    -0.58400
O733        O  0.18120069  0.53015964  0.48742939    -0.56900
O734        O  0.14810796  0.62305796  0.44522432    -0.56900
O735        O  0.21022837  0.58272664  0.47836976    -0.56100
O736        O  0.36496829  0.59025126  0.14032531    -0.57300
C737        C  0.33059626  0.51491017  0.08403302     0.75400
O738        O  0.27475454  0.58736776  0.52299562    -0.58400
C739        C  0.36490042  0.61467225  0.13303009     0.75300
C740        C  0.35399686  0.57362456  0.05193857     0.77700
Cd741      Cd  0.32990580  0.57312987  0.07839924     1.37500
O742        O  0.35348820  0.52871347  0.11234076    -0.57300
O743        O  0.37213947  0.57247804  0.08529552    -0.56100
C744        C  0.26518697  0.58397310  0.53567196     0.77700
O745        O  0.32462610  0.57672219  0.03067564    -0.58400
O746        O  0.30815075  0.52805214  0.05555563    -0.56900
O747        O  0.34879900  0.61965519  0.10085557    -0.56900
O748        O  0.28610563  0.57782347  0.06896963    -0.56100
O749        O  0.11349475  0.84222240  0.38722659    -0.57300
C750        C  0.07921639  0.76686921  0.33426917     0.75400
O751        O  0.02312009  0.83500801  0.26838194    -0.58400
C752        C  0.11124336  0.86686088  0.37893025     0.75300
C753        C  0.10748115  0.82866455  0.30600191     0.77700
Cd754      Cd  0.07807658  0.82474765  0.32607475     1.37500
O755        O  0.09764695  0.78191106  0.36223815    -0.57300
O756        O  0.12336158  0.82446749  0.33820614    -0.56100
C757        C  0.51270394  0.83427270  0.28025802     0.77700
O758        O  0.07777833  0.83178168  0.28286744    -0.58400
O759        O  0.06099570  0.77863420  0.30425369    -0.56900
O760        O  0.09305324  0.87198587  0.34609249    -0.56900
O761        O  0.03292729  0.83135012  0.31398486    -0.56100
O762        O  0.37895258  0.84125527  0.14591194    -0.57300
C763        C  0.41351419  0.76715288  0.20424688     0.75400
O764        O  0.46749750  0.83681941  0.26662754    -0.58400
C765        C  0.37947771  0.86590124  0.15294309     0.75300
C766        C  0.37740293  0.82410010  0.21980118     0.77700
Cd767      Cd  0.41254920  0.82516317  0.20730626     1.37500
O768        O  0.39909898  0.78077419  0.17616772    -0.57300
O769        O  0.36772107  0.81309429  0.19263964    -0.56100
C770        C  0.47856212  0.83426976  0.25556933     0.77700
O771        O  0.40342556  0.83743439  0.24118675    -0.58400
O772        O  0.42771809  0.78042973  0.23243313    -0.56900
O773        O  0.39560271  0.87161865  0.18501528    -0.56900
O774        O  0.45886122  0.82966056  0.22220614    -0.56100
C775        C  0.20414534  0.74257239  0.23957663     0.02800
C776        C  0.21007248  0.77094325  0.24650420     0.02800
C777        C  0.22832515  0.78420872  0.24508580    -0.17700
C778        C  0.24234178  0.76946577  0.23899420     0.02800
C779        C  0.23741699  0.74104981  0.23328140     0.02800
C780        C  0.21799576  0.72790865  0.23309414    -0.17700
H781        H  0.21445060  0.70606960  0.22900223     0.04800
H782        H  0.23290014  0.80589328  0.25045437     0.04800
O783        O  0.09860578  0.72348209  0.36421910    -0.57300
C784        C  0.11459326  0.63884036  0.38543742     0.75400
O785        O  0.52433704  0.66751754  0.27313085    -0.58400
C786        C  0.07907911  0.73714414  0.33523317     0.75300
C787        C  0.10756980  0.68136357  0.30832566     0.77700
Cd788      Cd  0.07957005  0.67931099  0.33040183     1.37500
O789        O  0.11499071  0.66342849  0.39247587    -0.57300
O790        O  0.12113456  0.69093347  0.33812010    -0.56100
C791        C  0.51404498  0.66920086  0.28511659     0.77700
O792        O  0.08146226  0.66878772  0.28924210    -0.58400
O793        O  0.09819846  0.63315547  0.35325429    -0.56900
O794        O  0.05957104  0.72393535  0.30585356    -0.56900
O795        O  0.03445241  0.67315584  0.31876400    -0.56100
O796        O  0.40030854  0.72224868  0.17845390    -0.57300
C797        C  0.38224063  0.63641648  0.16025896     0.75400
O798        O  0.46882889  0.66786971  0.27175866    -0.58400
C799        C  0.41349663  0.73737680  0.20513393     0.75300
C800        C  0.37630474  0.67906856  0.22181088     0.77700
Cd801      Cd  0.41385779  0.67940582  0.21219888     1.37500
O802        O  0.38157686  0.66080479  0.15236738    -0.57300
O803        O  0.36411867  0.67976064  0.19099436    -0.56100
C804        C  0.47986177  0.66935590  0.26055908     0.77700
O805        O  0.40638754  0.67715346  0.24892341    -0.58400
O806        O  0.39819988  0.63176978  0.19249230    -0.56900
O807        O  0.42652915  0.72563995  0.23353678    -0.56900
O808        O  0.46013021  0.67323427  0.22712501    -0.56100
C809        C  0.18624128  0.72763549  0.24267380    -0.19300
C810        C  0.15403259  0.73325209  0.22033949     0.36900
C811        C  0.14085811  0.72283511  0.22979668    -0.25300
C812        C  0.15886535  0.70661935  0.26051212     0.03300
C813        C  0.18979128  0.69881113  0.28061051     0.28100
C814        C  0.20315018  0.70938634  0.27141081    -0.24400
N815        N  0.13401785  0.74905523  0.18789533    -0.81800
H816        H  0.11671783  0.72812993  0.21371539     0.13900
C817        C  0.14614225  0.69992114  0.27312258     0.03300
N818        N  0.20768062  0.68062646  0.31066294    -0.80400
H819        H  0.22757108  0.70466149  0.28805259     0.18800
C820        C  0.12260303  0.67963835  0.25503049    -0.25200
C821        C  0.11002772  0.67250961  0.26634020     0.36800
C822        C  0.12119677  0.68615798  0.29630199    -0.19200
C823        C  0.14483838  0.70640749  0.31427870    -0.24500
C824        C  0.15708078  0.71375025  0.30287595     0.28200
H825        H  0.11418597  0.66923388  0.23213532     0.13900
N826        N  0.08611338  0.65150635  0.24755548    -0.81800
H827        H  0.15342025  0.71734597  0.33699654     0.18800
N828        N  0.18029568  0.73547793  0.32202546    -0.80400
H829        H  0.08017509  0.64393545  0.22581141     0.34400
H830        H  0.09608680  0.63535748  0.26548265     0.38900
H831        H  0.16927337  0.75314015  0.31851021     0.34400
H832        H  0.18775778  0.73960092  0.31135902     0.31100
H833        H  0.22964421  0.67634020  0.32188598     0.34400
H834        H  0.21274882  0.69061319  0.33081867     0.31100
H835        H  0.14601378  0.75525630  0.18307163     0.38900
H836        H  0.12733691  0.76654106  0.19123413     0.34400
C837        C  0.25438617  0.72481474  0.23007607    -0.19300
C838        C  0.28377035  0.71287047  0.26090488     0.36900
C839        C  0.30244041  0.70216325  0.25886158    -0.25300
C840        C  0.29215699  0.70295420  0.22650455     0.03300
C841        C  0.26132532  0.71274742  0.19477465     0.28100
C842        C  0.24291770  0.72391480  0.19707375    -0.24400
N843        N  0.29518162  0.71294963  0.29457315    -0.81800
H844        H  0.32555268  0.69378402  0.28288743     0.13900
C845        C  0.31475557  0.69504146  0.22708473     0.03300
N846        N  0.24896522  0.71170811  0.16054565    -0.80400
H847        H  0.21999041  0.73272471  0.17335225     0.18800
C848        C  0.30558912  0.67587397  0.20212016    -0.25200
C849        C  0.32586252  0.66950043  0.20076491     0.36800
C850        C  0.35621535  0.68197739  0.22553921    -0.19200
C851        C  0.36596956  0.70011825  0.25153860    -0.24500
C852        C  0.34536003  0.70712611  0.25207529     0.28200
H853        H  0.28240788  0.66612179  0.18334740     0.13900
N854        N  0.31571365  0.65057974  0.17420292    -0.81800
H855        H  0.38900835  0.71016428  0.27019225     0.18800
N856        N  0.35509740  0.72751627  0.27699880    -0.80400
H857        H  0.29268202  0.64339300  0.15782147     0.34400
H858        H  0.33072005  0.63377299  0.18801727     0.38900
H859        H  0.36069910  0.74526630  0.27251585     0.34400
H860        H  0.37584791  0.72089850  0.30318667     0.31100
H861        H  0.22603500  0.71975403  0.14009410     0.34400
H862        H  0.26327791  0.72403814  0.16225196     0.31100
H863        H  0.27980397  0.70062235  0.29119278     0.38900
H864        H  0.31765561  0.70407166  0.31494614     0.34400
C865        C  0.35933506  0.82015575  0.22621221    -0.19300
C866        C  0.36004558  0.83909551  0.24547361     0.36900
C867        C  0.34216900  0.83366057  0.25050512    -0.25300
C868        C  0.32368816  0.80983517  0.23641536     0.03300
C869        C  0.32300072  0.79103650  0.21721437     0.28100
C870        C  0.34090231  0.79631840  0.21245163    -0.24400
N871        N  0.37832296  0.86384589  0.25919392    -0.81800
H872        H  0.34237011  0.84804357  0.26509654     0.13900
C873        C  0.30443160  0.80442835  0.24099029     0.03300
N874        N  0.30438909  0.76643932  0.20302401    -0.80400
H875        H  0.34054971  0.78158602  0.19798477     0.18800
C876        C  0.27151893  0.80873301  0.21114001    -0.25200
C877        C  0.25078919  0.79831600  0.21043767     0.36800
C878        C  0.26344169  0.78377219  0.24042814    -0.19200
C879        C  0.29647782  0.78127273  0.27135050    -0.24500
C880        C  0.31724116  0.79130131  0.27201732     0.28200
H881        H  0.26188209  0.81887337  0.18750921     0.13900
N882        N  0.21696170  0.80171070  0.17909290    -0.81800
H883        H  0.30611351  0.77053381  0.29466531     0.18800
N884        N  0.35085979  0.78747680  0.30428341    -0.80400
H885        H  0.21159014  0.81302082  0.15942594     0.34400
H886        H  0.20668302  0.78246274  0.16782183     0.38900
H887        H  0.35501631  0.76659538  0.30873925     0.34400
H888        H  0.36407405  0.79505460  0.30156706     0.31100
H889        H  0.30767760  0.75420109  0.19105866     0.34400
H890        H  0.28039719  0.77186116  0.18238603     0.31100
H891        H  0.36822435  0.87534539  0.23698236     0.38900
H892        H  0.37641629  0.87541739  0.27288544     0.34400
C893        C  0.19912604  0.78668427  0.25761096    -0.19300
C894        C  0.21150943  0.78153067  0.29085530     0.36900
C895        C  0.19706386  0.79341182  0.29800330    -0.25300
C896        C  0.17099556  0.81073978  0.27286145     0.03300
C897        C  0.16096487  0.81824001  0.24146318     0.28100
C898        C  0.17510280  0.80597715  0.23401583    -0.24400
N899        N  0.23818297  0.76374555  0.31672161    -0.81800
H900        H  0.20540004  0.78838080  0.32267326     0.13900
C901        C  0.15323141  0.81896401  0.27882108     0.03300
N902        N  0.13605405  0.83776444  0.21702331    -0.80400
H903        H  0.16645702  0.81051494  0.20905478     0.18800
C904        C  0.16961687  0.83185099  0.31139987    -0.25200
C905        C  0.15468992  0.83656475  0.32020231     0.36800
C906        C  0.12268126  0.82830948  0.29575191    -0.19200
C907        C  0.10582208  0.81677335  0.26235593    -0.24500
C908        C  0.12095655  0.81141957  0.25395483     0.28200
H909        H  0.19439511  0.83757200  0.33040780     0.13900
N910        N  0.17200386  0.84930710  0.35402947    -0.81800
H911        H  0.08134451  0.81023265  0.24376728     0.18800
N912        N  0.10418083  0.79708443  0.22117174    -0.80400
H913        H  0.19535731  0.85384602  0.36902931     0.34400
H914        H  0.16110618  0.86788438  0.34816316     0.38900
H915        H  0.08066281  0.79300251  0.20588019     0.34400
H916        H  0.11512122  0.77824556  0.22845110     0.31100
H917        H  0.13128520  0.84082273  0.19507005     0.34400
H918        H  0.14445677  0.85633472  0.23088166     0.31100
H919        H  0.25774786  0.77291025  0.32531379     0.38900
H920        H  0.24412352  0.76180142  0.33961022     0.34400
C921        C  0.02070846  0.52241897  0.00385031    -0.19300
C922        C  0.01249456  0.54578973  0.98376976     0.36900
C923        C  0.03483938  0.55651299  0.48687732    -0.25300
C924        C  0.06388369  0.54441636  0.00813775     0.03300
C925        C  0.07308214  0.52234201  0.03020865     0.28100
C926        C  0.05160596  0.51192254  0.02844407    -0.24400
N927        N  0.98177349  0.55745571  0.45952480    -0.81800
H928        H  0.02813865  0.57348984  0.47005541     0.13900
C929        C  0.08271977  0.55151224  0.50329909     0.03300
N930        N  0.10332918  0.50964700  0.05257615    -0.80400
H931        H  0.05757746  0.99374230  0.04484904     0.18800
C932        C  0.10774743  0.57032601  0.02585903    -0.25200
C933        C  0.12434027  0.57831148  0.01967724     0.36800
C934        C  0.11558461  0.56681074  0.49029086    -0.19200
C935        C  0.09086957  0.54730085  0.46834187    -0.24500
C936        C  0.07442582  0.53956990  0.47451322     0.28200
H937        H  0.11455027  0.57868314  0.04863708     0.13900
N938        N  0.15017505  0.59761767  0.04342776    -0.81800
H939        H  0.08443900  0.53769691  0.44630643     0.18800
N940        N  0.04952322  0.51930411  0.45191138    -0.80400
H941        H  0.15416888  0.60333934  0.06433432     0.34400
H942        H  0.14316235  0.61517097  0.02846408     0.38900
H943        H  0.04711902  0.51173262  0.43275569     0.34400
H944        H  0.02807352  0.52883780  0.43738641     0.31100
H945        H  0.10620641  0.99159667  0.06837479     0.34400
H946        H  0.12106501  0.52384651  0.07222518     0.31100
H947        H  0.46499217  0.54324482  0.43903536     0.38900
H948        H  0.47974680  0.57454631  0.44695428     0.34400
C949        C  0.44291695  0.52021956  0.00271310    -0.19300
C950        C  0.42333342  0.54313760  0.98305576     0.36900
C951        C  0.40908609  0.55473023  0.99068535    -0.25300
C952        C  0.41364872  0.54340357  0.01696074     0.03300
C953        C  0.43278737  0.52022752  0.03616288     0.28100
C954        C  0.44781993  0.50924708  0.02938687    -0.24400
N955        N  0.41752437  0.55411185  0.95503078    -0.81800
H956        H  0.39387208  0.57226317  0.97566579     0.13900
C957        C  0.39692993  0.55493650  0.02294064     0.03300
N958        N  0.43566099  0.50722535  0.06119173    -0.80400
H959        H  0.46320848  0.99242005  0.04418922     0.18800
C960        C  0.36536670  0.54694590  0.99995689    -0.25200
C961        C  0.34989068  0.55442658  0.00746513     0.36800
C962        C  0.36670705  0.56989485  0.03894898    -0.19200
C963        C  0.39770076  0.57918610  0.06069041    -0.24500
C964        C  0.41284217  0.57219774  0.05264236     0.28200
H965        H  0.35323724  0.53397632  0.97687340     0.13900
N966        N  0.31776856  0.54514801  0.48419204    -0.81800
H967        H  0.41035332  0.59147559  0.08444329     0.18800
N968        N  0.44412330  0.58264929  0.07427757    -0.80400
H969        H  0.30898575  0.53400162  0.46232520     0.34400
H970        H  0.31822609  0.53178407  0.49886837     0.38900
H971        H  0.45213504  0.59559250  0.09456481     0.34400
H972        H  0.45987612  0.56637199  0.08738494     0.31100
H973        H  0.45010156  0.99034684  0.07194655     0.34400
H974        H  0.44808724  0.52037518  0.08311286     0.31100
H975        H  0.40525885  0.53928952  0.93475313     0.38900
H976        H  0.40254232  0.57092081  0.94314781     0.34400
C977        C  0.35308296  0.93399697  0.02076785    -0.19300
C978        C  0.36058251  0.96025707  0.01850981     0.36900
C979        C  0.36911802  0.96352470  0.00239505    -0.25300
C980        C  0.37086090  0.94118387  0.98872734     0.03300
C981        C  0.36220054  0.91507397  0.98948828     0.28100
C982        C  0.35308031  0.91174925  0.00528391    -0.24400
N983        N  0.35928902  0.98410665  0.03180973    -0.81800
H984        H  0.37572523  0.98363208  0.00185918     0.13900
C985        C  0.38586809  0.94552014  0.97842862     0.03300
N986        N  0.36311918  0.89214022  0.97466604    -0.80400
H987        H  0.34680122  0.89169336  0.00639594     0.18800
C988        C  0.41541089  0.93349627  0.99966873    -0.25200
C989        C  0.43513739  0.94278877  0.99841090     0.36800
C990        C  0.42485255  0.96445488  0.97521056    -0.19200
C991        C  0.39390886  0.97451240  0.95125650    -0.24500
C992        C  0.37436326  0.96539285  0.95286612     0.28200
H993        H  0.42421754  0.91835854  0.01943140     0.13900
N994        N  0.96668492  0.93212323  0.02303765    -0.81800
H995        H  0.38651476  0.98995492  0.43340287     0.18800
N996        N  0.34384732  0.97632257  0.42987012    -0.80400
H997        H  0.97147953  0.91802161  0.04044268     0.34400
H998        H  0.96724319  0.92125271  0.00776225     0.38900
H999        H  0.33922310  0.99091463  0.41298044     0.34400
H1000       H  0.32680394  0.96086391  0.41307684     0.31100
H1001       H  0.35615807  0.87437762  0.97746412     0.34400
H1002       H  0.34624994  0.89538425  0.94691071     0.31100
H1003       H  0.33676331  0.98503216  0.02011708     0.38900
H1004       H  0.37656931  0.98280850  0.05986240     0.34400
C1005       C  0.00297606  0.96532277  0.97744530    -0.19300
C1006       C  0.99821146  0.97161192  0.94936792     0.36900
C1007       C  0.01973902  0.96107320  0.45146749    -0.25300
C1008       C  0.04368160  0.94358335  0.97855491     0.03300
C1009       C  0.04734354  0.93607377  0.00541032     0.28100
C1010       C  0.02656484  0.94677618  0.00431068    -0.24400
N1011       N  0.97387375  0.48905804  0.42098591    -0.81800
H1012       H  0.01665585  0.96672932  0.43053670     0.13900
C1013       C  0.06748658  0.93536198  0.48092383     0.03300
N1014       N  0.07261532  0.91825386  0.03407322    -0.80400
H1015       H  0.02993907  0.94198185  0.02564822     0.18800
C1016       C  0.09805052  0.94551568  0.00856187    -0.25200
C1017       C  0.11916774  0.94204046  0.00791497     0.36800
C1018       C  0.10910155  0.92693270  0.47893430    -0.19200
C1019       C  0.07781745  0.91665228  0.45126475    -0.24500
C1020       C  0.05690765  0.92064572  0.45204219     0.28200
H1021       H  0.10532345  0.95756503  0.02988022     0.13900
N1022       N  0.15030180  0.95445893  0.03534099    -0.81800
H1023       H  0.06939102  0.90616674  0.42840045     0.18800
N1024       N  0.02469154  0.91055005  0.42317305    -0.80400
H1025       H  0.15418863  0.96420050  0.05479066     0.34400
H1026       H  0.15087436  0.96967319  0.02298327     0.38900
H1027       H  0.02059700  0.90032100  0.40380395     0.34400
H1028       H  0.02189978  0.89617282  0.43417484     0.31100
H1029       H  0.07214215  0.91491335  0.05181214     0.34400
H1030       H  0.06834130  0.89941171  0.02241590     0.31100
H1031       H  0.95894150  0.49455411  0.42191900     0.38900
H1032       H  0.98417039  0.50691656  0.42324766     0.34400
O1033       O  0.12674265  0.91341461  0.89812205    -0.57300
C1034       C  0.16238866  0.98884311  0.95575885     0.75400
O1035       O  0.15763240  0.92447536  0.99910896    -0.58400
C1036       C  0.12867885  0.88876290  0.90628531     0.75300
C1037       C  0.22638368  0.92025124  0.00369967     0.77700
Cd1038     Cd  0.16157440  0.93067395  0.95935573     1.37500
O1039       O  0.14458909  0.97509315  0.92672835    -0.57300
O1040       O  0.20556433  0.92450767  0.97011422    -0.56100
C1041       C  0.12762735  0.92721082  0.97340187     0.77700
O1042       O  0.21688769  0.91870201  0.01662625    -0.58400
O1043       O  0.17920932  0.97568726  0.98460148    -0.56900
O1044       O  0.14642528  0.88360181  0.93900964    -0.56900
O1045       O  0.11409609  0.93040374  0.94209904    -0.56100
O1046       O  0.36204530  0.91114582  0.63224898    -0.57300
C1047       C  0.32958471  0.98512228  0.58211085     0.75400
O1048       O  0.32266811  0.91348804  0.52581711    -0.58400
C1049       C  0.36206121  0.88672309  0.62523923     0.75300
C1050       C  0.26015749  0.91953344  0.02671448     0.77700
Cd1051     Cd  0.32578550  0.92759941  0.57038002     1.37500
O1052       O  0.35223986  0.97020820  0.60849847    -0.57300
O1053       O  0.28192252  0.92153356  0.56080707    -0.56100
C1054       C  0.34478585  0.92948267  0.53839104     0.78900
O1055       O  0.26912149  0.91893205  0.01323031    -0.58400
O1056       O  0.30580864  0.97323521  0.55251978    -0.56900
O1057       O  0.34576383  0.88124229  0.59307579    -0.56900
O1058       O  0.35919658  0.94246262  0.56682417    -0.56100
C1059       C  0.99624546  0.50717549  0.49657145     0.02800
C1060       C  0.98765344  0.97995775  0.48346191     0.02800
C1061       C  0.96386988  0.96639516  0.47569540    -0.17700
C1062       C  0.94869193  0.97916494  0.48140087     0.02800
C1063       C  0.95720909  0.50638798  0.49455973     0.02800
C1064       C  0.98054354  0.52016363  0.50153012    -0.17700
H1065       H  0.98711269  0.54086748  0.51180060     0.04800
H1066       H  0.95733175  0.94571608  0.46537273     0.04800
O1067       O  0.13167017  0.59331570  0.90576584    -0.57300
C1068       C  0.16308418  0.51833844  0.95723699     0.75400
O1069       O  0.22171179  0.58463276  0.02529299    -0.58400
C1070       C  0.13225543  0.61780395  0.91321437     0.75300
C1071       C  0.13227825  0.57314634  0.98222018     0.77700
Cd1072     Cd  0.16519132  0.57601429  0.96629622     1.37500
O1073       O  0.14645431  0.53341297  0.92970195    -0.57300
O1074       O  0.12005437  0.56626152  0.95223145    -0.56100
C1075       C  0.23137046  0.58442209  0.01251672     0.77700
O1076       O  0.15992252  0.58382359  0.00512803    -0.58400
O1077       O  0.18066405  0.53009281  0.98734320    -0.56900
O1078       O  0.14840046  0.62312681  0.94542039    -0.56900
O1079       O  0.21034327  0.58259518  0.97852458    -0.56100
O1080       O  0.36481406  0.59015460  0.64019742    -0.57300
C1081       C  0.33032007  0.51494073  0.58372926     0.75400
O1082       O  0.27485855  0.58719031  0.02313031    -0.58400
C1083       C  0.36484107  0.61457917  0.63299183     0.75300
C1084       C  0.35389506  0.57360243  0.55184287     0.77700
Cd1085     Cd  0.32974366  0.57315588  0.57822412     1.37500
O1086       O  0.35324674  0.52871999  0.61204315    -0.57300
O1087       O  0.37201461  0.57247488  0.58519301    -0.56100
C1088       C  0.26530505  0.58384884  0.03582778     0.77700
O1089       O  0.32452039  0.57672162  0.53054853    -0.58400
O1090       O  0.30785977  0.52810390  0.55528112    -0.56900
O1091       O  0.34876530  0.61961820  0.60083858    -0.56900
O1092       O  0.28596359  0.57787327  0.56878735    -0.56100
O1093       O  0.11348782  0.84243596  0.88745573    -0.57300
C1094       C  0.07943480  0.76698855  0.83448229     0.75400
O1095       O  0.02333817  0.83511827  0.76854491    -0.58400
C1096       C  0.11117723  0.86708133  0.87913973     0.75300
C1097       C  0.10772307  0.82883160  0.80625252     0.77700
Cd1098     Cd  0.07829133  0.82490420  0.82632419     1.37500
O1099       O  0.09808169  0.78200573  0.86248232    -0.57300
O1100       O  0.12360976  0.82468589  0.83846867    -0.56100
C1101       C  0.51285750  0.83427515  0.78034637     0.77700
O1102       O  0.07802036  0.83193489  0.78312412    -0.58400
O1103       O  0.06098767  0.77879115  0.80445665    -0.56900
O1104       O  0.09305992  0.87217777  0.84631627    -0.56900
O1105       O  0.03303794  0.83133711  0.81406328    -0.56100
O1106       O  0.37908400  0.84106399  0.64588519    -0.57300
C1107       C  0.41366228  0.76693939  0.70430780     0.75400
O1108       O  0.46758150  0.83672108  0.76659034    -0.58400
C1109       C  0.37968637  0.86571768  0.65296349     0.75300
C1110       C  0.37742968  0.82397241  0.71961867     0.77700
Cd1111     Cd  0.41269355  0.82495914  0.70728050     1.37500
O1112       O  0.39935243  0.78053779  0.67625098    -0.57300
O1113       O  0.36776238  0.81298942  0.69245574    -0.56100
C1114       C  0.47870235  0.83416978  0.75559753     0.77700
O1115       O  0.40350572  0.83723374  0.74109025    -0.58400
O1116       O  0.42777937  0.78023994  0.73244634    -0.56900
O1117       O  0.39585646  0.87142498  0.68505389    -0.56900
O1118       O  0.45905649  0.82946916  0.72226346    -0.56100
C1119       C  0.20449442  0.74259796  0.73994031     0.02800
C1120       C  0.21036964  0.77097823  0.74679198     0.02800
C1121       C  0.22859577  0.78424343  0.74533243    -0.17700
C1122       C  0.24262817  0.76949003  0.73926472     0.02800
C1123       C  0.23777520  0.74106221  0.73366312     0.02800
C1124       C  0.21838642  0.72792162  0.73352110    -0.17700
H1125       H  0.21488211  0.70607638  0.72949080     0.04800
H1126       H  0.23311553  0.80593862  0.75061960     0.04800
O1127       O  0.09884412  0.72356817  0.86437401    -0.57300
C1128       C  0.11477162  0.63890161  0.88558965     0.75400
O1129       O  0.52452177  0.66749243  0.77328756    -0.58400
C1130       C  0.07930344  0.73725217  0.83541007     0.75300
C1131       C  0.10770938  0.68128683  0.80840666     0.77700
Cd1132     Cd  0.07974019  0.67937355  0.83052719     1.37500
O1133       O  0.11523890  0.66350477  0.89264605    -0.57300
O1134       O  0.12141022  0.69066042  0.83833819    -0.56100
C1135       C  0.51422421  0.66916749  0.78526723     0.77700
O1136       O  0.08144504  0.66894806  0.78916249    -0.58400
O1137       O  0.09829331  0.63320111  0.85337952    -0.56900
O1138       O  0.05977356  0.72405387  0.80602197    -0.56900
O1139       O  0.03462283  0.67318688  0.81890276    -0.56100
O1140       O  0.40052249  0.72201877  0.67858475    -0.57300
C1141       C  0.38226531  0.63627051  0.66029416     0.75400
O1142       O  0.46899600  0.66767985  0.77189197    -0.58400
C1143       C  0.41362894  0.73716501  0.70521822     0.75300
C1144       C  0.37643001  0.67895857  0.72189398     0.77700
Cd1145     Cd  0.41400241  0.67920535  0.71231879     1.37500
O1146       O  0.38167301  0.66066034  0.65246767    -0.57300
O1147       O  0.36425344  0.67965531  0.69108328    -0.56100
C1148       C  0.48003556  0.66924176  0.76070350     0.77700
O1149       O  0.40650635  0.67697801  0.74901278    -0.58400
O1150       O  0.39823320  0.63158082  0.69252343    -0.56900
O1151       O  0.42656999  0.72544972  0.73359171    -0.56900
O1152       O  0.46029848  0.67312279  0.72726887    -0.56100
C1153       C  0.18659284  0.72766438  0.74304162    -0.19300
C1154       C  0.15435142  0.73321307  0.72062953     0.36900
C1155       C  0.14114541  0.72276019  0.73003602    -0.25300
C1156       C  0.15915808  0.70658363  0.76078547     0.03300
C1157       C  0.19013642  0.69885758  0.78098315     0.28100
C1158       C  0.20352161  0.70946454  0.77182853    -0.24400
N1159       N  0.13433455  0.74898080  0.68815691    -0.81800
H1160       H  0.11697483  0.72800253  0.71389033     0.13900
C1161       C  0.14638681  0.69986227  0.77333660     0.03300
N1162       N  0.20804979  0.68071989  0.81108506    -0.80400
H1163       H  0.22797082  0.70479619  0.78853295     0.18800
C1164       C  0.12280217  0.67960766  0.75516907    -0.25200
C1165       C  0.11018849  0.67246458  0.76643281     0.36800
C1166       C  0.12136732  0.68606819  0.79642100    -0.19200
C1167       C  0.14505710  0.70627858  0.81447576    -0.24500
C1168       C  0.15732585  0.71364687  0.80311295     0.28200
H1169       H  0.11438251  0.66923682  0.73225582     0.13900
N1170       N  0.08624240  0.65148420  0.74759329    -0.81800
H1171       H  0.15364195  0.71718346  0.83721320     0.18800
N1172       N  0.18056000  0.73536303  0.82232079    -0.80400
H1173       H  0.08032571  0.64392482  0.72585964     0.34400
H1174       H  0.09617553  0.63532272  0.76549325     0.38900
H1175       H  0.16955956  0.75301258  0.81887409     0.34400
H1176       H  0.18800544  0.73954602  0.81164673     0.31100
H1177       H  0.23005109  0.67649032  0.82237481     0.34400
H1178       H  0.21304384  0.69071671  0.83118399     0.31100
H1179       H  0.14635658  0.75521617  0.68337746     0.38900
H1180       H  0.12757723  0.76644775  0.69142590     0.34400
C1181       C  0.25472890  0.72482221  0.73044376    -0.19300
C1182       C  0.28417915  0.71296849  0.76128391     0.36900
C1183       C  0.30280733  0.70226537  0.75917922    -0.25300
C1184       C  0.29240886  0.70296407  0.72674721     0.03300
C1185       C  0.26151410  0.71265061  0.69502178     0.28100
C1186       C  0.24314907  0.72381429  0.69738015    -0.24400
N1187       N  0.29568554  0.71312377  0.79500931    -0.81800
H1188       H  0.32597154  0.69396218  0.78320785     0.13900
C1189       C  0.31494799  0.69506593  0.72723533     0.03300
N1190       N  0.24905058  0.71151732  0.66073683    -0.80400
H1191       H  0.22016568  0.73254199  0.67365109     0.18800
C1192       C  0.30577284  0.67583990  0.70231430    -0.25200
C1193       C  0.32600192  0.66945637  0.70089773     0.36800
C1194       C  0.35634465  0.68194349  0.72561564    -0.19200
C1195       C  0.36609115  0.70017524  0.75153970    -0.24500
C1196       C  0.34550125  0.70722733  0.75209042     0.28200
H1197       H  0.28261817  0.66605119  0.68362019     0.13900
N1198       N  0.31581384  0.65052247  0.67432440    -0.81800
H1199       H  0.38910396  0.71025601  0.77011376     0.18800
N1200       N  0.35519786  0.72773941  0.77687847    -0.80400
H1201       H  0.29278428  0.64334755  0.65797022     0.34400
H1202       H  0.33081457  0.63371201  0.68812879     0.38900
H1203       H  0.36068041  0.74545737  0.77220994     0.34400
H1204       H  0.37600795  0.72123989  0.80310766     0.31100
H1205       H  0.22607909  0.71948306  0.64029368     0.34400
H1206       H  0.26325914  0.72387617  0.66230230     0.31100
H1207       H  0.28038016  0.70078791  0.79174426     0.38900
H1208       H  0.31818756  0.70429170  0.81537191     0.34400
C1209       C  0.35927927  0.82008961  0.72592970    -0.19300
C1210       C  0.36007285  0.83900412  0.74528048     0.36900
C1211       C  0.34213893  0.83361874  0.75024399    -0.25300
C1212       C  0.32353936  0.80985630  0.73602638     0.03300
C1213       C  0.32276357  0.79108518  0.71672860     0.28100
C1214       C  0.34070164  0.79632898  0.71200706    -0.24400
N1215       N  0.37852093  0.86366814  0.75919495    -0.81800
H1216       H  0.34242414  0.84797401  0.76492856     0.13900
C1217       C  0.30436973  0.80443139  0.74071837     0.03300
N1218       N  0.30407200  0.76652949  0.70245467    -0.80400
H1219       H  0.34028751  0.78161271  0.69747520     0.18800
C1220       C  0.27143119  0.80862941  0.71090652    -0.25200
C1221       C  0.25081361  0.79821327  0.71037541     0.36800
C1222       C  0.26360565  0.78380585  0.74051344    -0.19200
C1223       C  0.29666230  0.78141440  0.77138555    -0.24500
C1224       C  0.31731391  0.79141640  0.77187099     0.28200
H1225       H  0.26168925  0.81868331  0.68717879     0.13900
N1226       N  0.21695929  0.80146537  0.67905608    -0.81800
H1227       H  0.30640314  0.77076220  0.79480010     0.18800
N1228       N  0.35095883  0.78766044  0.80408171    -0.80400
H1229       H  0.21147719  0.81268556  0.65926562     0.34400
H1230       H  0.20677562  0.78216799  0.66794852     0.38900
H1231       H  0.35516106  0.76679064  0.80865980     0.34400
H1232       H  0.36408892  0.79516217  0.80122149     0.31100
H1233       H  0.30734143  0.75428363  0.69047524     0.34400
H1234       H  0.28009682  0.77200318  0.68181195     0.31100
H1235       H  0.36852253  0.87524188  0.73707651     0.38900
H1236       H  0.37667223  0.87522282  0.77295008     0.34400
C1237       C  0.19938617  0.78672184  0.75785477    -0.19300
C1238       C  0.21177208  0.78159412  0.79110448     0.36900
C1239       C  0.19726707  0.79342647  0.79819926    -0.25300
C1240       C  0.17115347  0.81070559  0.77301436     0.03300
C1241       C  0.16111051  0.81818359  0.74160131     0.28100
C1242       C  0.17529563  0.80595243  0.73419669    -0.24400
N1243       N  0.23851550  0.76388586  0.81703526    -0.81800
H1244       H  0.20560971  0.78840853  0.82287615     0.13900
C1245       C  0.15341136  0.81895821  0.77899887     0.03300
N1246       N  0.13615096  0.83766121  0.71711164    -0.80400
H1247       H  0.16664026  0.81046713  0.70922539     0.18800
C1248       C  0.16982203  0.83187425  0.81157321    -0.25200
C1249       C  0.15491983  0.83664627  0.82039788     0.36800
C1250       C  0.12290725  0.82841852  0.79597685    -0.19200
C1251       C  0.10602391  0.81684953  0.76258345    -0.24500
C1252       C  0.12113289  0.81144185  0.75415806     0.28200
H1253       H  0.19460074  0.83758077  0.83055910     0.13900
N1254       N  0.17226237  0.84942640  0.85421615    -0.81800
H1255       H  0.08154301  0.81033002  0.74401297     0.18800
N1256       N  0.10432378  0.79708822  0.72137307    -0.80400
H1257       H  0.19561334  0.85394084  0.86919220     0.34400
H1258       H  0.16138175  0.86801846  0.84833531     0.38900
H1259       H  0.08080598  0.79303524  0.70609903     0.34400
H1260       H  0.11524065  0.77823637  0.72864859     0.31100
H1261       H  0.13139255  0.84071841  0.69516569     0.34400
H1262       H  0.14449737  0.85624450  0.73093196     0.31100
H1263       H  0.25805040  0.77311289  0.82561343     0.38900
H1264       H  0.24445054  0.76195001  0.83992068     0.34400
C1265       C  0.02085865  0.52230953  0.50402654    -0.19300
C1266       C  0.01279294  0.54565012  0.48397976     0.36900
C1267       C  0.03438575  0.55672468  0.98646696    -0.25300
C1268       C  0.06437908  0.54419420  0.50878525     0.03300
C1269       C  0.07340541  0.52214316  0.53079317     0.28100
C1270       C  0.05175615  0.51177318  0.52878186    -0.24400
N1271       N  0.98146667  0.55754261  0.95945448    -0.81800
H1272       H  0.02758158  0.57375283  0.96965045     0.13900
C1273       C  0.08207106  0.55190540  0.00249332     0.03300
N1274       N  0.10369374  0.50944563  0.55339613    -0.80400
H1275       H  0.05829732  0.99455497  0.54490329     0.18800
C1276       C  0.10748795  0.57084371  0.52564733    -0.25200
C1277       C  0.12401332  0.57875874  0.51935171     0.36800
C1278       C  0.11511547  0.56729044  0.98973839    -0.19200
C1279       C  0.08942032  0.54873918  0.96669239    -0.24500
C1280       C  0.07286718  0.54098194  0.97271543     0.28200
H1281       H  0.11361142  0.57996338  0.54768424     0.13900
N1282       N  0.14892647  0.59895493  0.54204340    -0.81800
H1283       H  0.08231668  0.53986864  0.94392052     0.18800
N1284       N  0.04700612  0.52163099  0.94901924    -0.80400
H1285       H  0.15241911  0.60531845  0.56240906     0.34400
H1286       H  0.14123354  0.61597981  0.52605010     0.38900
H1287       H  0.04408666  0.51462239  0.92928271     0.34400
H1288       H  0.02607663  0.53180493  0.93523802     0.31100
H1289       H  0.10621075  0.99318717  0.56672607     0.34400
H1290       H  0.12137891  0.52367757  0.57303725     0.31100
H1291       H  0.46467216  0.54332537  0.93898397     0.38900
H1292       H  0.47932592  0.57466264  0.94683364     0.34400
C1293       C  0.44304438  0.52019691  0.50288561    -0.19300
C1294       C  0.42334224  0.54303716  0.48312801     0.36900
C1295       C  0.40903806  0.55457269  0.49070903    -0.25300
C1296       C  0.41367301  0.54326869  0.51704654     0.03300
C1297       C  0.43294483  0.52017354  0.53636398     0.28100
C1298       C  0.44801529  0.50924081  0.52961555    -0.24400
N1299       N  0.41746715  0.55398441  0.45504590    -0.81800
H1300       H  0.39372884  0.57204495  0.47560870     0.13900
C1301       C  0.39692524  0.55476516  0.52300263     0.03300
N1302       N  0.43591472  0.50719910  0.56148048    -0.80400
H1303       H  0.46257183  0.99150966  0.54405486     0.18800
C1304       C  0.36539459  0.54669297  0.50007007    -0.25200
C1305       C  0.34988004  0.55422596  0.50751503     0.36800
C1306       C  0.36663190  0.56981409  0.53889490    -0.19200
C1307       C  0.39759572  0.57916263  0.56059327    -0.24500
C1308       C  0.41276668  0.57213515  0.55259299     0.28200
H1309       H  0.35331334  0.53364734  0.47706170     0.13900
N1310       N  0.31775904  0.54539337  0.98410966    -0.81800
H1311       H  0.41019681  0.59153842  0.58426755     0.18800
N1312       N  0.44400140  0.58266522  0.57415402    -0.80400
H1313       H  0.30891549  0.53436752  0.96214115     0.34400
H1314       H  0.31820637  0.53192410  0.99870383     0.38900
H1315       H  0.45195877  0.59568712  0.59435497     0.34400
H1316       H  0.45982588  0.56643754  0.58737052     0.31100
H1317       H  0.44896371  0.98960249  0.57129257     0.34400
H1318       H  0.44826791  0.52041154  0.58332738     0.31100
H1319       H  0.40527977  0.53911415  0.43483703     0.38900
H1320       H  0.40239261  0.57073228  0.44308383     0.34400
C1321       C  0.35297744  0.93351804  0.52048659    -0.19300
C1322       C  0.36010672  0.95977912  0.51776394     0.36900
C1323       C  0.36867367  0.96294101  0.50167312    -0.25300
C1324       C  0.37077032  0.94049194  0.48845364     0.03300
C1325       C  0.36232421  0.91438498  0.48952319     0.28100
C1326       C  0.35321548  0.91116011  0.50533784    -0.24400
N1327       N  0.35840484  0.98372346  0.53056896    -0.81800
H1328       H  0.37505828  0.98305676  0.50084358     0.13900
C1329       C  0.38600316  0.94472881  0.47841657     0.03300
N1330       N  0.36346491  0.89135565  0.47500860    -0.80400
H1331       H  0.34716159  0.89110438  0.50675584     0.18800
C1332       C  0.41564635  0.93276736  0.49997957    -0.25200
C1333       C  0.43556119  0.94203605  0.49898799     0.36800
C1334       C  0.42537203  0.96361398  0.47574225    -0.19200
C1335       C  0.39434430  0.97358021  0.45145667    -0.24500
C1336       C  0.37460089  0.96448056  0.45278777     0.28200
H1337       H  0.42437645  0.91772294  0.51979297     0.13900
N1338       N  0.96719192  0.93147156  0.52393973    -0.81800
H1339       H  0.38599112  0.99093981  0.93322096     0.18800
N1340       N  0.34371121  0.97731711  0.93029029    -0.80400
H1341       H  0.97186189  0.91740066  0.54128645     0.34400
H1342       H  0.96802202  0.92059163  0.50891133     0.38900
H1343       H  0.33899614  0.99199409  0.91341313     0.34400
H1344       H  0.32657288  0.96192566  0.91346729     0.31100
H1345       H  0.35663153  0.87361178  0.47799772     0.34400
H1346       H  0.34659133  0.89441057  0.44721724     0.31100
H1347       H  0.33583128  0.98447016  0.51877841     0.38900
H1348       H  0.37564728  0.98271854  0.55863657     0.34400
C1349       C  0.00398687  0.96520882  0.47861656    -0.19300
C1350       C  0.99913659  0.97169940  0.45051372     0.36900
C1351       C  0.01862270  0.96054920  0.95025094    -0.25300
C1352       C  0.04476099  0.94395013  0.47954904     0.03300
C1353       C  0.04852908  0.93626574  0.50645831     0.28100
C1354       C  0.02780814  0.94681444  0.50552729    -0.24400
N1355       N  0.97416909  0.48926447  0.92119723    -0.81800
H1356       H  0.01556349  0.96595824  0.92928300     0.13900
C1357       C  0.06679179  0.93529258  0.98045782     0.03300
N1358       N  0.07379755  0.91836069  0.53496210    -0.80400
H1359       H  0.03128812  0.94190041  0.52692131     0.18800
C1360       C  0.09922498  0.94439153  0.50962004    -0.25200
C1361       C  0.12021608  0.94046638  0.50884965     0.36800
C1362       C  0.10873332  0.92762656  0.97885214    -0.19200
C1363       C  0.07795941  0.91624467  0.95179385    -0.24500
C1364       C  0.05687866  0.91988181  0.95237707     0.28200
H1365       H  0.10707270  0.95584865  0.53162805     0.13900
N1366       N  0.15200566  0.95155455  0.53713861    -0.81800
H1367       H  0.07004510  0.90515797  0.92953738     0.18800
N1368       N  0.02512152  0.90873999  0.92406974    -0.80400
H1369       H  0.15637831  0.96068710  0.55720581     0.34400
H1370       H  0.15351700  0.96707075  0.52590001     0.38900
H1371       H  0.02148104  0.89809041  0.90524162     0.34400
H1372       H  0.02297794  0.89454316  0.93583375     0.31100
H1373       H  0.07340943  0.91489469  0.55275781     0.34400
H1374       H  0.06945497  0.89957918  0.52315913     0.31100
H1375       H  0.95917694  0.49472155  0.92205465     0.38900
H1376       H  0.98452294  0.50713514  0.92358234     0.34400
O1377       O  0.62686857  0.41312113  0.39818780    -0.57300
C1378       C  0.66228917  0.48859290  0.45578874     0.75400
O1379       O  0.65799599  0.42381007  0.49920681    -0.58400
C1380       C  0.62891198  0.38847159  0.40642918     0.75300
C1381       C  0.72662033  0.42018870  0.50369518     0.77700
Cd1382     Cd  0.66182545  0.43040367  0.45942326     1.37500
O1383       O  0.64506296  0.47482695  0.42687239    -0.57300
O1384       O  0.70578791  0.42447885  0.47011692    -0.56100
C1385       C  0.62800827  0.42667834  0.47358435     0.77700
O1386       O  0.71715488  0.41856770  0.51664802    -0.58400
O1387       O  0.67869974  0.47544827  0.48454667    -0.56900
O1388       O  0.64678806  0.38333001  0.43919476    -0.56900
O1389       O  0.61443860  0.43005852  0.44228231    -0.56100
O1390       O  0.86197701  0.41119469  0.13221404    -0.57300
C1391       C  0.82968628  0.48514933  0.08232495     0.75400
O1392       O  0.82269571  0.41348371  0.02577291    -0.58400
C1393       C  0.86213603  0.38679429  0.12527699     0.75300
C1394       C  0.76037167  0.41948875  0.52667739     0.77700
Cd1395     Cd  0.82581785  0.42766616  0.07034126     1.37500
O1396       O  0.85249112  0.47022399  0.10853904    -0.57300
O1397       O  0.78190563  0.42146743  0.06066474    -0.56100
C1398       C  0.84465743  0.42960313  0.03815408     0.78900
O1399       O  0.76930600  0.41892407  0.51316292    -0.58400
O1400       O  0.80574898  0.47328550  0.05280562    -0.56900
O1401       O  0.84596596  0.38133004  0.09315740    -0.56900
O1402       O  0.85897802  0.44271215  0.06647501    -0.56100
C1403       C  0.49571106  0.00745606  0.99559370     0.02800
C1404       C  0.48774633  0.48001611  0.98358072     0.02800
C1405       C  0.46399690  0.46642459  0.97585310    -0.17700
C1406       C  0.44878662  0.47918749  0.98151734     0.02800
C1407       C  0.45670167  0.00708585  0.99365143     0.02800
C1408       C  0.48012477  0.02065866  0.00060379    -0.17700
H1409       H  0.48698880  0.04129852  0.01111362     0.04800
H1410       H  0.45751355  0.44572391  0.96560416     0.04800
O1411       O  0.63154586  0.09304711  0.40571470    -0.57300
C1412       C  0.66315843  0.01824198  0.45736300     0.75400
O1413       O  0.72170895  0.08442971  0.52529937    -0.58400
C1414       C  0.63211824  0.11755000  0.41311228     0.75300
C1415       C  0.63233005  0.07306092  0.48236334     0.77700
Cd1416     Cd  0.66515989  0.07590291  0.46633557     1.37500
O1417       O  0.64649390  0.03330086  0.42980955    -0.57300
O1418       O  0.62020870  0.06586552  0.45251202    -0.56100
C1419       C  0.73129809  0.08437276  0.51244504     0.77700
O1420       O  0.65980577  0.08405015  0.50505880    -0.58400
O1421       O  0.68073692  0.03000695  0.48746452    -0.56900
O1422       O  0.64826247  0.12292911  0.44530463    -0.56900
O1423       O  0.71022033  0.08268116  0.47843745    -0.56100
O1424       O  0.86477721  0.09021297  0.14020629    -0.57300
C1425       C  0.83029654  0.01498376  0.08380585     0.75400
O1426       O  0.77470016  0.08721456  0.52291615    -0.58400
C1427       C  0.86481329  0.11463710  0.13301091     0.75300
C1428       C  0.85401570  0.07372834  0.05192305     0.77700
Cd1429     Cd  0.82981657  0.07319918  0.07826674     1.37500
O1430       O  0.85322347  0.02876047  0.11212378    -0.57300
O1431       O  0.87211305  0.07242180  0.08525777    -0.56100
C1432       C  0.76520901  0.08380696  0.53567476     0.77700
O1433       O  0.82465384  0.07692587  0.03064289    -0.58400
O1434       O  0.80790551  0.02814970  0.05532475    -0.56900
O1435       O  0.84879817  0.11966930  0.10088140    -0.56900
O1436       O  0.78603976  0.07786986  0.06879095    -0.56100
O1437       O  0.61374784  0.34213160  0.38769862    -0.57300
C1438       C  0.57964071  0.26667633  0.33475020     0.75400
O1439       O  0.52349974  0.33483582  0.26881990    -0.58400
C1440       C  0.61137715  0.36677073  0.37932182     0.75300
C1441       C  0.60774104  0.32873471  0.30632627     0.77700
Cd1442     Cd  0.57844358  0.32458826  0.32655814     1.37500
O1443       O  0.59825534  0.28168011  0.36276206    -0.57300
O1444       O  0.62373748  0.32477731  0.33861779    -0.56100
C1445       C  0.01301066  0.33404452  0.28061097     0.77700
O1446       O  0.57799769  0.33150043  0.28320628    -0.58400
O1447       O  0.56126719  0.27848887  0.30474517    -0.56900
O1448       O  0.59316333  0.37184804  0.34646787    -0.56900
O1449       O  0.53318476  0.33108805  0.31432556    -0.56100
O1450       O  0.87927068  0.34115199  0.14600238    -0.57300
C1451       C  0.91364001  0.26698135  0.20435414     0.75400
O1452       O  0.96769672  0.33663336  0.26679131    -0.58400
C1453       C  0.87977111  0.36579404  0.15302704     0.75300
C1454       C  0.87749690  0.32398911  0.21973030     0.77700
Cd1455     Cd  0.91275715  0.32500994  0.20737665     1.37500
O1456       O  0.89929617  0.28058273  0.17628590    -0.57300
O1457       O  0.86786676  0.31293865  0.19261827    -0.56100
C1458       C  0.97884477  0.33403700  0.25583457     0.77700
O1459       O  0.90350655  0.33734352  0.24111101    -0.58400
O1460       O  0.92781970  0.28028094  0.23251665    -0.56900
O1461       O  0.89584189  0.37148945  0.18508337    -0.56900
O1462       O  0.95920217  0.32939988  0.22248824    -0.56100
C1463       C  0.70465382  0.24271740  0.24021510     0.02800
C1464       C  0.71051895  0.27109808  0.24705709     0.02800
C1465       C  0.72882279  0.28434875  0.24570061    -0.17700
C1466       C  0.74290507  0.26958290  0.23970365     0.02800
C1467       C  0.73802416  0.24116031  0.23406280     0.02800
C1468       C  0.71858778  0.22803162  0.23385498    -0.17700
H1469       H  0.71507515  0.20618729  0.22981647     0.04800
H1470       H  0.73334233  0.30604405  0.25098657     0.04800
O1471       O  0.59896617  0.22321426  0.36453944    -0.57300
C1472       C  0.61464193  0.13861884  0.38546858     0.75400
O1473       O  0.02441337  0.16743328  0.27320965    -0.58400
C1474       C  0.57943381  0.23694471  0.33561466     0.75300
C1475       C  0.60767889  0.18115588  0.30838320     0.77700
Cd1476     Cd  0.57969486  0.17910808  0.33048875     1.37500
O1477       O  0.61518899  0.16323619  0.39254644    -0.57300
O1478       O  0.62128890  0.19061374  0.33823931    -0.56100
C1479       C  0.01414631  0.16907558  0.28522640     0.77700
O1480       O  0.58151563  0.16865419  0.28922046    -0.58400
O1481       O  0.59811139  0.13289400  0.35324382    -0.56900
O1482       O  0.55982747  0.22379969  0.30618324    -0.56900
O1483       O  0.53457957  0.17298457  0.31888720    -0.56100
O1484       O  0.90040609  0.22206068  0.17859566    -0.57300
C1485       C  0.88219918  0.13632964  0.16030427     0.75400
O1486       O  0.96893978  0.16765336  0.27189592    -0.58400
C1487       C  0.91358319  0.23720606  0.20525719     0.75300
C1488       C  0.87646949  0.17889846  0.22205899     0.77700
Cd1489     Cd  0.91394552  0.17924051  0.21235420     1.37500
O1490       O  0.88159783  0.16072454  0.15248371    -0.57300
O1491       O  0.86423388  0.17963004  0.19121750    -0.56100
C1492       C  0.97996334  0.16922047  0.26068952     0.77700
O1493       O  0.90655058  0.17694320  0.24913224    -0.58400
O1494       O  0.89815962  0.13163107  0.19252777    -0.56900
O1495       O  0.92657896  0.22548910  0.23365490    -0.56900
O1496       O  0.96021900  0.17315401  0.22726354    -0.56100
C1497       C  0.68672789  0.22778534  0.24327847    -0.19300
C1498       C  0.65443469  0.23323963  0.22072542     0.36900
C1499       C  0.64115734  0.22274694  0.23003218    -0.25300
C1500       C  0.65916446  0.20664421  0.26084018     0.03300
C1501       C  0.69022614  0.19903983  0.28121795     0.28100
C1502       C  0.70366955  0.20966620  0.27214328    -0.24400
N1503       N  0.63444130  0.24895874  0.18821817    -0.81800
H1504       H  0.61693812  0.22791466  0.21377220     0.13900
C1505       C  0.64632111  0.19992054  0.27330614     0.03300
N1506       N  0.70816656  0.18101481  0.31142930    -0.80400
H1507       H  0.72816559  0.20507940  0.28896321     0.18800
C1508       C  0.62291629  0.17951294  0.25528383    -0.25200
C1509       C  0.61030178  0.17232731  0.26653748     0.36800
C1510       C  0.62131954  0.18602219  0.29638806    -0.19200
C1511       C  0.64481821  0.20639828  0.31428433    -0.24500
C1512       C  0.65706227  0.21382461  0.30290644     0.28200
H1513       H  0.61464225  0.16905489  0.23249778     0.13900
N1514       N  0.58651652  0.15121300  0.24782617    -0.81800
H1515       H  0.65326476  0.21738325  0.33690108     0.18800
N1516       N  0.68007460  0.23571351  0.32192123    -0.80400
H1517       H  0.58069656  0.14360139  0.22617550     0.34400
H1518       H  0.59655505  0.13512118  0.26584458     0.38900
H1519       H  0.66887557  0.25328855  0.31826403     0.34400
H1520       H  0.68751486  0.23992449  0.31124588     0.31100
H1521       H  0.73023730  0.17686406  0.32285409     0.34400
H1522       H  0.71301247  0.19107235  0.33139655     0.31100
H1523       H  0.64652203  0.25522946  0.18352535     0.38900
H1524       H  0.62758320  0.26640797  0.19138372     0.34400
C1525       C  0.75498402  0.22490951  0.23085511    -0.19300
C1526       C  0.78444740  0.21308056  0.26170746     0.36900
C1527       C  0.80304002  0.20230497  0.25958440    -0.25300
C1528       C  0.79261316  0.20293323  0.22713286     0.03300
C1529       C  0.76171970  0.21262519  0.19540768     0.28100
C1530       C  0.74337699  0.22384014  0.19777631    -0.24400
N1531       N  0.79600443  0.21333486  0.29546272    -0.81800
H1532       H  0.82620401  0.19400470  0.28361729     0.13900
C1533       C  0.81513248  0.19497971  0.22760499     0.03300
N1534       N  0.74923626  0.21144828  0.16111251    -0.80400
H1535       H  0.72038933  0.23255881  0.17404122     0.18800
C1536       C  0.80592804  0.17573256  0.20268198    -0.25200
C1537       C  0.82612801  0.16932633  0.20122684     0.36800
C1538       C  0.85645100  0.18183878  0.22587600    -0.19200
C1539       C  0.86624103  0.20006390  0.25182692    -0.24500
C1540       C  0.84569809  0.20711624  0.25244421     0.28200
H1541       H  0.78277515  0.16594594  0.18401828     0.13900
N1542       N  0.81593499  0.15034105  0.17469153    -0.81800
H1543       H  0.88925085  0.21014470  0.27036920     0.18800
N1544       N  0.85545751  0.22760804  0.27728493    -0.80400
H1545       H  0.79292346  0.14314835  0.15839032     0.34400
H1546       H  0.83096308  0.13354918  0.18853474     0.38900
H1547       H  0.86095103  0.24532533  0.27262873     0.34400
H1548       H  0.87627357  0.22107956  0.30349390     0.31100
H1549       H  0.72626674  0.21941799  0.14066962     0.34400
H1550       H  0.76344071  0.22378440  0.16265095     0.31100
H1551       H  0.78071952  0.20104332  0.29227225     0.38900
H1552       H  0.81850926  0.20450830  0.31582999     0.34400
C1553       C  0.85939720  0.32007369  0.22610696    -0.19300
C1554       C  0.86018084  0.33899655  0.24544369     0.36900
C1555       C  0.84234296  0.33356737  0.25052612    -0.25300
C1556       C  0.82383711  0.30975860  0.23642983     0.03300
C1557       C  0.82306709  0.29097607  0.21714599     0.28100
C1558       C  0.84091448  0.29626178  0.21230810    -0.24400
N1559       N  0.87851471  0.36371717  0.25921622    -0.81800
H1560       H  0.84261073  0.34793539  0.26518628     0.13900
C1561       C  0.80467715  0.30434847  0.24113523     0.03300
N1562       N  0.80446338  0.26637598  0.20299171    -0.80400
H1563       H  0.84050663  0.28153899  0.19778683     0.18800
C1564       C  0.77174987  0.30860233  0.21134322    -0.25200
C1565       C  0.75112567  0.29825714  0.21083053     0.36800
C1566       C  0.76390323  0.28388177  0.24097815    -0.19200
C1567       C  0.79695588  0.28144343  0.27183876    -0.24500
C1568       C  0.81761185  0.29134705  0.27228965     0.28200
H1569       H  0.76201754  0.31864288  0.18761384     0.13900
N1570       N  0.71727584  0.30154124  0.17951517    -0.81800
H1571       H  0.80668485  0.27080818  0.29525608     0.18800
N1572       N  0.85124663  0.28750022  0.30446029    -0.80400
H1573       H  0.71180486  0.31272975  0.15971448     0.34400
H1574       H  0.70706274  0.28224878  0.16841918     0.38900
H1575       H  0.85536164  0.26662007  0.30901853     0.34400
H1576       H  0.86436960  0.29490415  0.30155210     0.31100
H1577       H  0.80770204  0.25413935  0.19097613     0.34400
H1578       H  0.78047020  0.27179223  0.18239887     0.31100
H1579       H  0.86841139  0.37525529  0.23702739     0.38900
H1580       H  0.87667785  0.37526957  0.27298372     0.34400
C1581       C  0.69942947  0.28686427  0.25798464    -0.19300
C1582       C  0.71180189  0.28184846  0.29124557     0.36900
C1583       C  0.69726754  0.29375624  0.29826894    -0.25300
C1584       C  0.67111413  0.31097867  0.27298471     0.03300
C1585       C  0.66103501  0.31830740  0.24151254     0.28100
C1586       C  0.67527282  0.30602126  0.23419936    -0.24400
N1587       N  0.73855890  0.26417137  0.31726168    -0.81800
H1588       H  0.70560361  0.28882109  0.32296044     0.13900
C1589       C  0.65332219  0.31924800  0.27889838     0.03300
N1590       N  0.63597595  0.33767678  0.21686344    -0.80400
H1591       H  0.66661367  0.31043715  0.20920672     0.18800
C1592       C  0.66966263  0.33228531  0.31138394    -0.25200
C1593       C  0.65477950  0.33694736  0.32025235     0.36800
C1594       C  0.62285694  0.32848427  0.29596223    -0.19200
C1595       C  0.60601386  0.31684624  0.26261515    -0.24500
C1596       C  0.62110934  0.31154752  0.25415330     0.28200
H1597       H  0.69438968  0.33814004  0.33029183     0.13900
N1598       N  0.67206139  0.34983388  0.35399498    -0.81800
H1599       H  0.58159568  0.31016925  0.24412962     0.18800
N1600       N  0.60437152  0.29709685  0.22145105    -0.80400
H1601       H  0.69535145  0.35451984  0.36887778     0.34400
H1602       H  0.66101005  0.36834288  0.34799951     0.38900
H1603       H  0.58089516  0.29291098  0.20624071     0.34400
H1604       H  0.61542990  0.27830759  0.22883663     0.31100
H1605       H  0.63118501  0.34061110  0.19487857     0.34400
H1606       H  0.64423604  0.35632757  0.23052447     0.31100
H1607       H  0.75809438  0.27337489  0.32582224     0.38900
H1608       H  0.74447688  0.26231646  0.34014218     0.34400
C1609       C  0.52097622  0.02213907  0.00385364    -0.19300
C1610       C  0.51387549  0.04564029  0.98452885     0.36900
C1611       C  0.53454003  0.05670954  0.48666299    -0.25300
C1612       C  0.56610037  0.04344370  0.01083817     0.03300
C1613       C  0.57408768  0.02116641  0.03204749     0.28100
C1614       C  0.55167182  0.01110689  0.02894867    -0.24400
N1615       N  0.48147026  0.05740898  0.45930294    -0.81800
H1616       H  0.52777519  0.07372773  0.46985544     0.13900
C1617       C  0.58234817  0.05188690  0.50293237     0.03300
N1618       N  0.60425368  0.00806210  0.05515446    -0.80400
H1619       H  0.55832294  0.49461666  0.04484983     0.18800
C1620       C  0.60495722  0.07368919  0.02303100    -0.25200
C1621       C  0.62136857  0.08147445  0.01654018     0.36800
C1622       C  0.61526535  0.06718278  0.48999593    -0.19200
C1623       C  0.59029687  0.04791274  0.46776587    -0.24500
C1624       C  0.57382675  0.04018255  0.47390111     0.28200
H1625       H  0.60707270  0.08594682  0.04060625     0.13900
N1626       N  0.64105712  0.10554199  0.03329821    -0.81800
H1627       H  0.58371378  0.03846419  0.44556467     0.18800
N1628       N  0.54870320  0.02011827  0.45105023    -0.80400
H1629       H  0.64142059  0.11463197  0.05022121     0.34400
H1630       H  0.63051315  0.11948337  0.01278624     0.38900
H1631       H  0.54616667  0.01267985  0.43174691     0.34400
H1632       H  0.52736949  0.02979373  0.43670522     0.31100
H1633       H  0.60608900  0.49315452  0.06636704     0.34400
H1634       H  0.62203028  0.02207317  0.07518979     0.31100
H1635       H  0.96475289  0.04317211  0.43881654     0.38900
H1636       H  0.97937272  0.07454117  0.44672887     0.34400
C1637       C  0.94288433  0.02097911  0.00236990    -0.19300
C1638       C  0.92306502  0.04375926  0.98262591     0.36900
C1639       C  0.90888740  0.05523493  0.99039667    -0.25300
C1640       C  0.91375877  0.04392773  0.01691228     0.03300
C1641       C  0.93317251  0.02089980  0.03623984     0.28100
C1642       C  0.94812507  0.01003827  0.02930609    -0.24400
N1643       N  0.91690868  0.05468284  0.95433416    -0.81800
H1644       H  0.89346273  0.07264359  0.97527798     0.13900
C1645       C  0.89702722  0.05528868  0.02295859     0.03300
N1646       N  0.93634407  0.00787383  0.06149313    -0.80400
H1647       H  0.96279006  0.49157548  0.04427747     0.18800
C1648       C  0.86550554  0.04717027  0.00002154    -0.25200
C1649       C  0.84999941  0.05457830  0.00751368     0.36800
C1650       C  0.86675319  0.07007064  0.03895715    -0.19200
C1651       C  0.89769740  0.07948080  0.06065683    -0.24500
C1652       C  0.91285343  0.07259656  0.05259797     0.28200
H1653       H  0.85342296  0.03418707  0.97696465     0.13900
N1654       N  0.81763722  0.04553612  0.48375532    -0.81800
H1655       H  0.91028873  0.09180424  0.08436520     0.18800
N1656       N  0.94404129  0.08323538  0.07412635    -0.80400
H1657       H  0.80880631  0.03455298  0.46176901     0.34400
H1658       H  0.81807353  0.03202122  0.49830889     0.38900
H1659       H  0.95198086  0.09620299  0.09435687     0.34400
H1660       H  0.95992726  0.06705719  0.08730620     0.31100
H1661       H  0.94924803  0.48959169  0.07158141     0.34400
H1662       H  0.94871721  0.02108459  0.08334464     0.31100
H1663       H  0.90468842  0.03977408  0.93416325     0.38900
H1664       H  0.90176751  0.07137908  0.94239915     0.34400
C1665       C  0.85280030  0.43360200  0.02018586    -0.19300
C1666       C  0.85998832  0.45983891  0.01747792     0.36900
C1667       C  0.86855717  0.46294947  0.00138376    -0.25300
C1668       C  0.87063048  0.44046963  0.98818162     0.03300
C1669       C  0.86211582  0.41439276  0.98921408     0.28100
C1670       C  0.85297758  0.41122089  0.00500354    -0.24400
N1671       N  0.85837149  0.48380836  0.03032563    -0.81800
H1672       H  0.87500277  0.48304120  0.00058000     0.13900
C1673       C  0.88598387  0.44463959  0.97829158     0.03300
N1674       N  0.86324029  0.39133921  0.97471180    -0.80400
H1675       H  0.84688071  0.39118316  0.00640373     0.18800
C1676       C  0.91578930  0.43287992  0.00020534    -0.25200
C1677       C  0.93578706  0.44220621  0.99935826     0.36800
C1678       C  0.92550291  0.46360997  0.97588096    -0.19200
C1679       C  0.89436671  0.47338640  0.95131164    -0.24500
C1680       C  0.87453550  0.46422982  0.95249439     0.28200
H1681       H  0.92455581  0.41797707  0.02016536     0.13900
N1682       N  0.46757171  0.43191022  0.02466985    -0.81800
H1683       H  0.88661385  0.48977541  0.43336547     0.18800
N1684       N  0.84375610  0.47600705  0.42949291    -0.80400
H1685       H  0.47224157  0.41790248  0.04206625     0.34400
H1686       H  0.46873630  0.42102718  0.00994473     0.38900
H1687       H  0.83915896  0.49057496  0.41260069     0.34400
H1688       H  0.82681165  0.46048224  0.41271525     0.31100
H1689       H  0.85635053  0.37361959  0.97766548     0.34400
H1690       H  0.84639861  0.39439992  0.94692676     0.31100
H1691       H  0.83582231  0.48458997  0.01859339     0.38900
H1692       H  0.87565524  0.48280593  0.05840163     0.34400
C1693       C  0.50409360  0.46528326  0.97873251    -0.19300
C1694       C  0.49941201  0.47191216  0.95078350     0.36900
C1695       C  0.51975093  0.46109485  0.45154227    -0.25300
C1696       C  0.54486880  0.44394738  0.97968128     0.03300
C1697       C  0.54846641  0.43613543  0.00643019     0.28100
C1698       C  0.52776360  0.44674133  0.00550532    -0.24400
N1699       N  0.47376338  0.98892222  0.42082864    -0.81800
H1700       H  0.51669722  0.46676427  0.43063755     0.13900
C1701       C  0.56749552  0.43539091  0.48103423     0.03300
N1702       N  0.57353232  0.41802490  0.03475890    -0.80400
H1703       H  0.53112399  0.44172346  0.02678728     0.18800
C1704       C  0.59941924  0.44387127  0.00993741    -0.25200
C1705       C  0.62038902  0.43994408  0.00912935     0.36800
C1706       C  0.60917935  0.42712039  0.47913351    -0.19200
C1707       C  0.57793710  0.41674489  0.45147495    -0.24500
C1708       C  0.55698643  0.42067378  0.45219797     0.28200
H1709       H  0.60740952  0.45506117  0.03217644     0.13900
N1710       N  0.65234288  0.45065484  0.03770595    -0.81800
H1711       H  0.56956902  0.40624253  0.42865248     0.18800
N1712       N  0.52479490  0.41052469  0.42331145    -0.80400
H1713       H  0.65683345  0.45948886  0.05797996     0.34400
H1714       H  0.65411294  0.46634470  0.02686980     0.38900
H1715       H  0.52075090  0.40030839  0.40397298     0.34400
H1716       H  0.52201274  0.39612758  0.43430652     0.31100
H1717       H  0.57303083  0.41447942  0.05244412     0.34400
H1718       H  0.56904794  0.39930875  0.02276065     0.31100
H1719       H  0.45881631  0.99438809  0.42174958     0.38900
H1720       H  0.48399621  0.00680357  0.42302791     0.34400
O1721       O  0.62683398  0.41318644  0.89786736    -0.57300
C1722       C  0.66208457  0.48857929  0.95567352     0.75400
O1723       O  0.65790308  0.42349674  0.99890695    -0.58400
C1724       C  0.62891255  0.38851525  0.90606921     0.75300
C1725       C  0.72666478  0.42032164  0.00354970     0.77700
Cd1726     Cd  0.66177381  0.43036706  0.95917672     1.37500
O1727       O  0.64521216  0.47485648  0.92680091    -0.57300
O1728       O  0.70588860  0.42481888  0.97002520    -0.56100
C1729       C  0.62791982  0.42640239  0.97332487     0.77700
O1730       O  0.71711721  0.41846853  0.01639683    -0.58400
O1731       O  0.67817367  0.47538862  0.98431947    -0.56900
O1732       O  0.64680133  0.38332973  0.93882658    -0.56900
O1733       O  0.61434927  0.42988776  0.94203253    -0.56100
O1734       O  0.86187709  0.41133361  0.63207430    -0.57300
C1735       C  0.82941043  0.48518376  0.58200325     0.75400
O1736       O  0.82244150  0.41353634  0.52552047    -0.58400
C1737       C  0.86206316  0.38692948  0.62517468     0.75300
C1738       C  0.76044189  0.41960034  0.02660506     0.77700
Cd1739     Cd  0.82563659  0.42769660  0.57015970     1.37500
O1740       O  0.85219214  0.47026855  0.60825637    -0.57300
O1741       O  0.78187232  0.42157737  0.56072036    -0.56100
C1742       C  0.84445383  0.42961005  0.53795377     0.78900
O1743       O  0.76944765  0.41919711  0.01316573    -0.58400
O1744       O  0.80551684  0.47331328  0.55246002    -0.56900
O1745       O  0.84588574  0.38142546  0.59306165    -0.56900
O1746       O  0.85880014  0.44269262  0.56630023    -0.56100
C1747       C  0.49616278  0.00713756  0.49644071     0.02800
C1748       C  0.48771107  0.48000087  0.48356980     0.02800
C1749       C  0.46397626  0.46642254  0.47586930    -0.17700
C1750       C  0.44884480  0.47917718  0.48162982     0.02800
C1751       C  0.45707754  0.00637600  0.49435096     0.02800
C1752       C  0.48044793  0.02012445  0.50137617    -0.17700
H1753       H  0.48702272  0.04082760  0.51165196     0.04800
H1754       H  0.45744927  0.44573427  0.46557263     0.04800
O1755       O  0.63159054  0.09323476  0.90566552    -0.57300
C1756       C  0.66349946  0.01860257  0.95729125     0.75400
O1757       O  0.72178260  0.08455171  0.02530853    -0.58400
C1758       C  0.63169603  0.11767109  0.91281986     0.75300
C1759       C  0.63370986  0.07216783  0.98400520     0.77700
Cd1760     Cd  0.66525087  0.07617618  0.96641388     1.37500
O1761       O  0.64576264  0.03362175  0.92956246    -0.57300
O1762       O  0.62219396  0.06324442  0.95501793    -0.56100
C1763       C  0.73136026  0.08464790  0.01244457     0.77700
O1764       O  0.65970855  0.08548686  0.00488855    -0.58400
O1765       O  0.68216789  0.03040450  0.98758822    -0.56900
O1766       O  0.64740909  0.12301871  0.94484157    -0.56900
O1767       O  0.71027360  0.08312056  0.97842388    -0.56100
O1768       O  0.86487180  0.09028276  0.64000059    -0.57300
C1769       C  0.83048639  0.01488881  0.58374087     0.75400
O1770       O  0.77483165  0.08747312  0.02302132    -0.58400
C1771       C  0.86476724  0.11469988  0.63266579     0.75300
C1772       C  0.85384331  0.07368494  0.55162137     0.77700
Cd1773     Cd  0.82976368  0.07311843  0.57808664     1.37500
O1774       O  0.85323117  0.02872026  0.61210098    -0.57300
O1775       O  0.87197209  0.07241225  0.58496784    -0.56100
C1776       C  0.76527036  0.08403762  0.03570041     0.77700
O1777       O  0.82448065  0.07684843  0.53036200    -0.58400
O1778       O  0.80818152  0.02800406  0.55516504    -0.56900
O1779       O  0.84864301  0.11966022  0.60047845    -0.56900
O1780       O  0.78604818  0.07771617  0.56879865    -0.56100
O1781       O  0.61374771  0.34219076  0.88730077    -0.57300
C1782       C  0.57953635  0.26676340  0.83440748     0.75400
O1783       O  0.52336227  0.33480426  0.76844678    -0.58400
C1784       C  0.61137717  0.36683283  0.87893588     0.75300
C1785       C  0.60762649  0.32877908  0.80591131     0.77700
Cd1786     Cd  0.57835452  0.32464756  0.82616172     1.37500
O1787       O  0.59805960  0.28178710  0.86239785    -0.57300
O1788       O  0.62359450  0.32464894  0.83816280    -0.56100
C1789       C  0.01294173  0.33407401  0.78031725     0.77700
O1790       O  0.57790338  0.33168943  0.78281585    -0.58400
O1791       O  0.56128520  0.27854545  0.80440122    -0.56900
O1792       O  0.59313916  0.37192306  0.84607735    -0.56900
O1793       O  0.53316871  0.33116756  0.81404761    -0.56100
O1794       O  0.87914284  0.34130275  0.64590676    -0.57300
C1795       C  0.91349657  0.26719793  0.70400725     0.75400
O1796       O  0.96772723  0.33664566  0.76667648    -0.58400
C1797       C  0.87972652  0.36596052  0.65295037     0.75300
C1798       C  0.87759993  0.32418612  0.71981467     0.77700
Cd1799     Cd  0.91272310  0.32519834  0.70727909     1.37500
O1800       O  0.89915645  0.28086415  0.67598530    -0.57300
O1801       O  0.86788393  0.31320142  0.69262430    -0.56100
C1802       C  0.97879439  0.33411009  0.75562041     0.77700
O1803       O  0.90363554  0.33750021  0.74119875    -0.58400
O1804       O  0.92769408  0.28042747  0.73221899    -0.56900
O1805       O  0.89589564  0.37169221  0.68503698    -0.56900
O1806       O  0.95908170  0.32959260  0.72223635    -0.56100
C1807       C  0.70435848  0.24273165  0.73967176     0.02800
C1808       C  0.71029104  0.27110558  0.74657011     0.02800
C1809       C  0.72863242  0.28432182  0.74525143    -0.17700
C1810       C  0.74269879  0.26953486  0.73925037     0.02800
C1811       C  0.73773881  0.24112310  0.73352527     0.02800
C1812       C  0.71825951  0.22802311  0.73327647    -0.17700
H1813       H  0.71469677  0.20618484  0.72919130     0.04800
H1814       H  0.73321609  0.30600743  0.75060122     0.04800
O1815       O  0.59886804  0.22332033  0.86423344    -0.57300
C1816       C  0.61426025  0.13871630  0.88514020     0.75400
O1817       O  0.02423098  0.16756210  0.77278411    -0.58400
C1818       C  0.57928988  0.23703938  0.83529947     0.75300
C1819       C  0.60754161  0.18136552  0.80812994     0.77700
Cd1820     Cd  0.57949750  0.17921757  0.83016638     1.37500
O1821       O  0.61452369  0.16329488  0.89208175    -0.57300
O1822       O  0.62113157  0.19083971  0.83797307    -0.56100
C1823       C  0.01390614  0.16924346  0.78473294     0.77700
O1824       O  0.58141907  0.16880014  0.78900346    -0.58400
O1825       O  0.59811839  0.13302881  0.85305039    -0.56900
O1826       O  0.55960379  0.22388731  0.80587371    -0.56900
O1827       O  0.53429351  0.17315795  0.81838214    -0.56100
O1828       O  0.90018814  0.22232640  0.67809562    -0.57300
C1829       C  0.88209134  0.13646162  0.65986845     0.75400
O1830       O  0.96867845  0.16794242  0.77134414    -0.58400
C1831       C  0.91341739  0.23742369  0.70481518     0.75300
C1832       C  0.87631866  0.17910530  0.72162261     0.77700
Cd1833     Cd  0.91371883  0.17945718  0.71180312     1.37500
O1834       O  0.88137146  0.16085372  0.65194133    -0.57300
O1835       O  0.86404341  0.17984705  0.69075883    -0.56100
C1836       C  0.97971889  0.16941712  0.76015374     0.77700
O1837       O  0.90639992  0.17714797  0.74866049    -0.58400
O1838       O  0.89809412  0.13182302  0.69211939    -0.56900
O1839       O  0.92644585  0.22565718  0.73319942    -0.56900
O1840       O  0.95999337  0.17328440  0.72671836    -0.56100
C1841       C  0.68640109  0.22783669  0.74272093    -0.19300
C1842       C  0.65416029  0.23342892  0.72027810     0.36900
C1843       C  0.64090641  0.22302235  0.72964628    -0.25300
C1844       C  0.65887448  0.20685427  0.76039327     0.03300
C1845       C  0.68985439  0.19909555  0.78063147     0.28100
C1846       C  0.70328307  0.20964570  0.77150718    -0.24400
N1847       N  0.63419318  0.24919952  0.68781504    -0.81800
H1848       H  0.61673503  0.22829287  0.71347239     0.13900
C1849       C  0.64606386  0.20016134  0.77290668     0.03300
N1850       N  0.70772735  0.18098560  0.81075024    -0.80400
H1851       H  0.72773313  0.20494669  0.78824039     0.18800
C1852       C  0.62265126  0.17976826  0.75490333    -0.25200
C1853       C  0.61008432  0.17257974  0.76621036     0.36800
C1854       C  0.62114774  0.18626249  0.79609411    -0.19200
C1855       C  0.64464351  0.20664024  0.81396401    -0.24500
C1856       C  0.65685939  0.21405525  0.80254489     0.28200
H1857       H  0.61433911  0.16931536  0.73209271     0.13900
N1858       N  0.58629674  0.15146973  0.74751495    -0.81800
H1859       H  0.65312391  0.21761755  0.83660408     0.18800
N1860       N  0.67991004  0.23591154  0.82156538    -0.80400
H1861       H  0.58042925  0.14387489  0.72582667     0.34400
H1862       H  0.59635516  0.13536640  0.76552379     0.38900
H1863       H  0.66874340  0.25351161  0.81791470     0.34400
H1864       H  0.68735892  0.24007496  0.81089077     0.31100
H1865       H  0.72974085  0.17672674  0.82208213     0.34400
H1866       H  0.71269138  0.19102522  0.83080896     0.31100
H1867       H  0.64624724  0.25539238  0.68306407     0.38900
H1868       H  0.62746257  0.26669262  0.69108043     0.34400
C1869       C  0.75470039  0.22486285  0.73032290    -0.19300
C1870       C  0.78415183  0.21302189  0.76118195     0.36900
C1871       C  0.80281600  0.20232891  0.75912251    -0.25300
C1872       C  0.79246414  0.20303732  0.72672079     0.03300
C1873       C  0.76158363  0.21274127  0.69497848     0.28100
C1874       C  0.74317274  0.22387951  0.69728729    -0.24400
N1875       N  0.79562839  0.21318914  0.79488887    -0.81800
H1876       H  0.82596993  0.19402007  0.78316426     0.13900
C1877       C  0.81501789  0.19510178  0.72723942     0.03300
N1878       N  0.74918506  0.21165697  0.66072856    -0.80400
H1879       H  0.72020133  0.23261740  0.67354671     0.18800
C1880       C  0.80583045  0.17585827  0.70232545    -0.25200
C1881       C  0.82604219  0.16945678  0.70088850     0.36800
C1882       C  0.85633742  0.18201201  0.72549756    -0.19200
C1883       C  0.86612847  0.20021895  0.75146662    -0.24500
C1884       C  0.84559431  0.20722584  0.75211501     0.28200
H1885       H  0.78268257  0.16606156  0.68366171     0.13900
N1886       N  0.81589527  0.15041928  0.67442104    -0.81800
H1887       H  0.88913456  0.21030674  0.77001066     0.18800
N1888       N  0.85538189  0.22764261  0.77704129    -0.80400
H1889       H  0.79290417  0.14318743  0.65815133     0.34400
H1890       H  0.83096849  0.13365844  0.68832780     0.38900
H1891       H  0.86092496  0.24538666  0.77248162     0.34400
H1892       H  0.87617771  0.22105037  0.80322195     0.31100
H1893       H  0.72621696  0.21962735  0.64026592     0.34400
H1894       H  0.76342626  0.22403683  0.66236234     0.31100
H1895       H  0.78031555  0.20085310  0.79161062     0.38900
H1896       H  0.81813489  0.20436810  0.81527310     0.34400
C1897       C  0.85956554  0.32022178  0.72626888    -0.19300
C1898       C  0.86034396  0.33911866  0.74562078     0.36900
C1899       C  0.84252141  0.33364570  0.75071790    -0.25300
C1900       C  0.82402431  0.30982695  0.73660048     0.03300
C1901       C  0.82326459  0.29107336  0.71730434     0.28100
C1902       C  0.84111549  0.29639142  0.71248082    -0.24400
N1903       N  0.87863402  0.36386395  0.75936628    -0.81800
H1904       H  0.84276947  0.34799798  0.76537277     0.13900
C1905       C  0.80478149  0.30440451  0.74119058     0.03300
N1906       N  0.80463505  0.26648248  0.70308282    -0.80400
H1907       H  0.84071129  0.28169003  0.69794595     0.18800
C1908       C  0.77186730  0.30869481  0.71133625    -0.25200
C1909       C  0.75114290  0.29828372  0.71064125     0.36800
C1910       C  0.76380430  0.28380655  0.74067249    -0.19200
C1911       C  0.79684269  0.28131955  0.77159936    -0.24500
C1912       C  0.81759954  0.29129502  0.77223191     0.28200
H1913       H  0.76222384  0.31880941  0.68768913     0.13900
N1914       N  0.71730888  0.30160965  0.67925785    -0.81800
H1915       H  0.80648343  0.27061618  0.79493540     0.18800
N1916       N  0.85121545  0.28742545  0.80447058    -0.80400
H1917       H  0.71192864  0.31286749  0.65955585     0.34400
H1918       H  0.70708297  0.28233660  0.66806189     0.38900
H1919       H  0.85532458  0.26653912  0.80893625     0.34400
H1920       H  0.86441649  0.29492562  0.80170563     0.31100
H1921       H  0.80787817  0.25427065  0.69105636     0.34400
H1922       H  0.78064731  0.27191517  0.68248546     0.31100
H1923       H  0.86850638  0.37539946  0.73716474     0.38900
H1924       H  0.87677873  0.37540179  0.77312485     0.34400
C1925       C  0.69926942  0.28690331  0.75756037    -0.19300
C1926       C  0.71161313  0.28183961  0.79079690     0.36900
C1927       C  0.69714308  0.29380679  0.79787525    -0.25300
C1928       C  0.67108196  0.31112993  0.77266874     0.03300
C1929       C  0.66107331  0.31852503  0.74125724     0.28100
C1930       C  0.67524317  0.30618071  0.73388535    -0.24400
N1931       N  0.73827270  0.26405611  0.81672939    -0.81800
H1932       H  0.70544598  0.28883547  0.82253865     0.13900
C1933       C  0.65327430  0.31940671  0.77856029     0.03300
N1934       N  0.63614847  0.33802008  0.71672481    -0.80400
H1935       H  0.66662497  0.31064740  0.70892680     0.18800
C1936       C  0.66962123  0.33235146  0.81109622    -0.25200
C1937       C  0.65470947  0.33698565  0.81993339     0.36800
C1938       C  0.62275823  0.32858117  0.79556875    -0.19200
C1939       C  0.60590723  0.31705099  0.76217170    -0.24500
C1940       C  0.62102634  0.31178318  0.75373287     0.28200
H1941       H  0.69437291  0.33815015  0.83006582     0.13900
N1942       N  0.67198930  0.34978293  0.85372044    -0.81800
H1943       H  0.58146297  0.31042563  0.74362653     0.18800
N1944       N  0.60427469  0.29743104  0.72096851    -0.80400
H1945       H  0.69530026  0.35444081  0.86865474     0.34400
H1946       H  0.66097917  0.36830228  0.84779155     0.38900
H1947       H  0.58077293  0.29329403  0.70570037     0.34400
H1948       H  0.61526746  0.27861784  0.72827152     0.31100
H1949       H  0.63139642  0.34099540  0.69477296     0.34400
H1950       H  0.64452745  0.35662503  0.73050588     0.31100
H1951       H  0.75785501  0.27317755  0.82532397     0.38900
H1952       H  0.74418587  0.26218431  0.83960522     0.34400
C1953       C  0.52070029  0.02232951  0.50381165    -0.19300
C1954       C  0.51254142  0.04570883  0.48376777     0.36900
C1955       C  0.53670703  0.05620771  0.98851600    -0.25300
C1956       C  0.56410009  0.04446075  0.50850982     0.03300
C1957       C  0.57320598  0.02234692  0.53048595     0.28100
C1958       C  0.55162199  0.01186364  0.52852359    -0.24400
N1959       N  0.48307681  0.05795491  0.95977155    -0.81800
H1960       H  0.53073993  0.07330315  0.97222955     0.13900
C1961       C  0.58532179  0.05040747  0.00641939     0.03300
N1962       N  0.60349654  0.00969257  0.55298259    -0.80400
H1963       H  0.55835818  0.49448987  0.54515607     0.18800
C1964       C  0.60731461  0.07102697  0.52550560    -0.25200
C1965       C  0.62386158  0.07894698  0.51924047     0.36800
C1966       C  0.61773307  0.06562721  0.99282672    -0.19200
C1967       C  0.59841224  0.04213066  0.97688085    -0.24500
C1968       C  0.58224587  0.03439167  0.98340490     0.28200
H1969       H  0.61359892  0.07997474  0.54771846     0.13900
N1970       N  0.64898801  0.09894466  0.54217108    -0.81800
H1971       H  0.59587820  0.02959102  0.95913650     0.18800
N1972       N  0.56240915  0.01038219  0.96647712    -0.80400
H1973       H  0.65257473  0.10519259  0.56263896     0.34400
H1974       H  0.64146126  0.11607756  0.52639344     0.38900
H1975       H  0.56320447  0.00046138  0.95092941     0.34400
H1976       H  0.53889831  0.01658698  0.94855447     0.31100
H1977       H  0.60635659  0.49300697  0.56717424     0.34400
H1978       H  0.62118184  0.02391028  0.57265684     0.31100
H1979       H  0.96617094  0.04402688  0.93888020     0.38900
H1980       H  0.98177330  0.07509601  0.94781695     0.34400
C1981       C  0.94291519  0.02023966  0.50265466    -0.19300
C1982       C  0.92348059  0.04324744  0.48310193     0.36900
C1983       C  0.90922660  0.05487997  0.49070219    -0.25300
C1984       C  0.91364657  0.04351449  0.51685333     0.03300
C1985       C  0.93267432  0.02027646  0.53598998     0.28100
C1986       C  0.94770381  0.00924236  0.52923402    -0.24400
N1987       N  0.91782134  0.05427062  0.45520300    -0.81800
H1988       H  0.89410948  0.07247166  0.47574672     0.13900
C1989       C  0.89687786  0.05507014  0.52275229     0.03300
N1990       N  0.93544395  0.00727660  0.56093698    -0.80400
H1991       H  0.96305249  0.49160845  0.54455387     0.18800
C1992       C  0.86529709  0.04709620  0.49970299    -0.25200
C1993       C  0.84977551  0.05457340  0.50715303     0.36800
C1994       C  0.86656416  0.07002148  0.53863996    -0.19200
C1995       C  0.89756584  0.07931907  0.56042666    -0.24500
C1996       C  0.91275969  0.07232238  0.55244866     0.28200
H1997       H  0.85319662  0.03412766  0.47662827     0.13900
N1998       N  0.81789253  0.04547090  0.98416782    -0.81800
H1999       H  0.91019453  0.09159549  0.58418097     0.18800
N2000       N  0.94407748  0.08273049  0.57417276    -0.80400
H2001       H  0.80909168  0.03443199  0.96222987     0.34400
H2002       H  0.81837057  0.03199880  0.99878557     0.38900
H2003       H  0.95206395  0.09566984  0.59444931     0.34400
H2004       H  0.95979931  0.06642939  0.58729311     0.31100
H2005       H  0.94961323  0.48962898  0.57196870     0.34400
H2006       H  0.94789536  0.02039896  0.58288883     0.31100
H2007       H  0.90550205  0.03951130  0.43484391     0.38900
H2008       H  0.90294047  0.07114675  0.44338910     0.34400
C2009       C  0.85264225  0.43358631  0.52003268    -0.19300
C2010       C  0.85991964  0.45980824  0.51741254     0.36900
C2011       C  0.86859521  0.46289914  0.50143389    -0.25300
C2012       C  0.87064470  0.44041836  0.48821095     0.03300
C2013       C  0.86203952  0.41435479  0.48915034     0.28100
C2014       C  0.85281994  0.41120061  0.50485531    -0.24400
N2015       N  0.85826973  0.48378652  0.53021944    -0.81800
H2016       H  0.87511965  0.48297942  0.50071369     0.13900
C2017       C  0.88598337  0.44459224  0.47830346     0.03300
N2018       N  0.86314804  0.39129837  0.47463688    -0.80400
H2019       H  0.84665819  0.39117392  0.50619292     0.18800
C2020       C  0.91573381  0.43275493  0.50011466    -0.25200
C2021       C  0.93575706  0.44210859  0.49931253     0.36800
C2022       C  0.92554424  0.46361146  0.47597447    -0.19200
C2023       C  0.89444644  0.47345366  0.45147727    -0.24500
C2024       C  0.87460137  0.46428260  0.45262941     0.28200
H2025       H  0.92444813  0.41777002  0.51997562     0.13900
N2026       N  0.46749229  0.43171934  0.52452582    -0.81800
H2027       H  0.88648876  0.48964778  0.93311261     0.18800
N2028       N  0.84362713  0.47585816  0.92924180    -0.80400
H2029       H  0.47212217  0.41765075  0.54184772     0.34400
H2030       H  0.46858232  0.42088260  0.50970917     0.38900
H2031       H  0.83897430  0.49034495  0.91224460     0.34400
H2032       H  0.82676197  0.46026249  0.91257395     0.31100
H2033       H  0.85618348  0.37359232  0.47751510     0.34400
H2034       H  0.84635517  0.39439215  0.44686597     0.31100
H2035       H  0.83569347  0.48457962  0.51841546     0.38900
H2036       H  0.87550186  0.48278396  0.55828472     0.34400
C2037       C  0.50400407  0.46524390  0.47868767    -0.19300
C2038       C  0.49918109  0.47176373  0.45061235     0.36900
C2039       C  0.52003500  0.46127744  0.95177252    -0.25300
C2040       C  0.54472344  0.44392785  0.47959024     0.03300
C2041       C  0.54843930  0.43619570  0.50644440     0.28100
C2042       C  0.52774235  0.44677517  0.50552844    -0.24400
N2043       N  0.47324038  0.98917542  0.91989048    -0.81800
H2044       H  0.51708846  0.46705730  0.93097583     0.13900
C2045       C  0.56754070  0.43523949  0.98100200     0.03300
N2046       N  0.57363832  0.41821780  0.53488347    -0.80400
H2047       H  0.53118450  0.44183005  0.52688761     0.18800
C2048       C  0.59919383  0.44451440  0.50972494    -0.25200
C2049       C  0.62021671  0.44068129  0.50899017     0.36800
C2050       C  0.60910801  0.42680665  0.97892177    -0.19200
C2051       C  0.57768275  0.41685427  0.95102958    -0.24500
C2052       C  0.55679539  0.42085989  0.95183863     0.28200
H2053       H  0.60697449  0.45598113  0.53168773     0.13900
N2054       N  0.65194744  0.45189202  0.53724330    -0.81800
H2055       H  0.56912322  0.40663953  0.92795646     0.18800
N2056       N  0.52443282  0.41113938  0.92271224    -0.80400
H2057       H  0.65626045  0.46103366  0.55726383     0.34400
H2058       H  0.65338142  0.46742035  0.52594470     0.38900
H2059       H  0.52022334  0.40113600  0.90315274     0.34400
H2060       H  0.52137872  0.39664404  0.93336272     0.31100
H2061       H  0.57321674  0.41472508  0.55264620     0.34400
H2062       H  0.56923915  0.39945887  0.52300821     0.31100
H2063       H  0.45847016  0.99509162  0.92092586     0.38900
H2064       H  0.48390280  0.00679302  0.92228000     0.34400
O2065       O  0.62692377  0.91316393  0.39799097    -0.57300
C2066       C  0.66218042  0.98848730  0.45581163     0.75400
O2067       O  0.65788145  0.92346286  0.49895071    -0.58400
C2068       C  0.62885337  0.88850173  0.40611717     0.75300
C2069       C  0.72668263  0.92017951  0.50370581     0.77700
Cd2070     Cd  0.66180509  0.93029301  0.45928669     1.37500
O2071       O  0.64522580  0.97476798  0.42691915    -0.57300
O2072       O  0.70590265  0.92456640  0.47015651    -0.56100
C2073       C  0.62791073  0.92645215  0.47335411     0.77700
O2074       O  0.71713773  0.91843305  0.51656224    -0.58400
O2075       O  0.67835236  0.97529783  0.48447903    -0.56900
O2076       O  0.64665386  0.88328934  0.43884292    -0.56900
O2077       O  0.61435907  0.92995410  0.44207511    -0.56100
O2078       O  0.86166352  0.91128421  0.13212493    -0.57300
C2079       C  0.82931761  0.98522150  0.08210684     0.75400
O2080       O  0.82256530  0.91382956  0.02577486    -0.58400
C2081       C  0.86181855  0.88688398  0.12518465     0.75300
C2082       C  0.76045820  0.91948229  0.52676228     0.77700
Cd2083     Cd  0.82549371  0.92772637  0.07027534     1.37500
O2084       O  0.85199235  0.97028285  0.10843103    -0.57300
O2085       O  0.78165034  0.92166034  0.06075394    -0.56100
C2086       C  0.84472313  0.92985271  0.03849831     0.78900
O2087       O  0.76945190  0.91893370  0.51331270    -0.58400
O2088       O  0.80547598  0.97336567  0.05251857    -0.56900
O2089       O  0.84563316  0.88140557  0.09306120    -0.56900
O2090       O  0.85902487  0.94275984  0.06693099    -0.56100
C2091       C  0.49621137  0.50720636  0.99653062     0.02800
C2092       C  0.48678289  0.98035352  0.98229559     0.02800
C2093       C  0.46286860  0.96703669  0.97446136    -0.17700
C2094       C  0.44802158  0.97991674  0.98052678     0.02800
C2095       C  0.45711278  0.50640318  0.99442336     0.02800
C2096       C  0.48047194  0.52017813  0.00144820    -0.17700
H2097       H  0.48701295  0.54088689  0.01170052     0.04800
H2098       H  0.45608302  0.94639729  0.96397666     0.04800
O2099       O  0.63161109  0.59327847  0.40566607    -0.57300
C2100       C  0.66327153  0.51835331  0.45727623     0.75400
O2101       O  0.72161535  0.58469456  0.52515764    -0.58400
C2102       C  0.63207481  0.61774671  0.41306164     0.75300
C2103       C  0.63251767  0.57281445  0.48251310     0.77700
Cd2104     Cd  0.66513759  0.57600530  0.46622478     1.37500
O2105       O  0.64622607  0.53337531  0.42963045    -0.57300
O2106       O  0.62040420  0.56553499  0.45268930    -0.56100
C2107       C  0.73125881  0.58453930  0.51236427     0.77700
O2108       O  0.65986183  0.58403627  0.50504238    -0.58400
O2109       O  0.68120079  0.53015965  0.48742940    -0.56900
O2110       O  0.64810794  0.62305796  0.44522432    -0.56900
O2111       O  0.71022830  0.58272665  0.47836963    -0.56100
O2112       O  0.86496828  0.59025126  0.14032531    -0.57300
C2113       C  0.83059628  0.51491017  0.08403302     0.75400
O2114       O  0.77475453  0.58736776  0.52299561    -0.58400
C2115       C  0.86490040  0.61467225  0.13303009     0.75300
C2116       C  0.85399692  0.57362456  0.05193858     0.77700
Cd2117     Cd  0.82990581  0.57312988  0.07839923     1.37500
O2118       O  0.85348818  0.52871347  0.11234078    -0.57300
O2119       O  0.87213954  0.57247805  0.08529553    -0.56100
C2120       C  0.76518692  0.58397310  0.53567191     0.77700
O2121       O  0.82462616  0.57672220  0.03067566    -0.58400
O2122       O  0.80815084  0.52805214  0.05555560    -0.56900
O2123       O  0.84879900  0.61965519  0.10085557    -0.56900
O2124       O  0.78610564  0.57782364  0.06896966    -0.56100
O2125       O  0.61349473  0.84222244  0.38722658    -0.57300
C2126       C  0.57921638  0.76686921  0.33426917     0.75400
O2127       O  0.52312009  0.83500801  0.26838194    -0.58400
C2128       C  0.61124334  0.86686090  0.37893025     0.75300
C2129       C  0.60748114  0.82866455  0.30600191     0.77700
Cd2130     Cd  0.57807657  0.82474766  0.32607475     1.37500
O2131       O  0.59764694  0.78191106  0.36223815    -0.57300
O2132       O  0.62336156  0.82446749  0.33820614    -0.56100
C2133       C  0.01270394  0.83427270  0.28025802     0.77700
O2134       O  0.57777832  0.83178168  0.28286744    -0.58400
O2135       O  0.56099569  0.77863420  0.30425369    -0.56900
O2136       O  0.59305322  0.87198590  0.34609248    -0.56900
O2137       O  0.53292728  0.83135011  0.31398486    -0.56100
O2138       O  0.87895257  0.84125527  0.14591194    -0.57300
C2139       C  0.91351422  0.76715289  0.20424696     0.75400
O2140       O  0.96749750  0.83681941  0.26662754    -0.58400
C2141       C  0.87947769  0.86590124  0.15294309     0.75300
C2142       C  0.87740291  0.82410010  0.21980118     0.77700
Cd2143     Cd  0.91254919  0.82516317  0.20730627     1.37500
O2144       O  0.89909900  0.78077421  0.17616779    -0.57300
O2145       O  0.86772106  0.81309429  0.19263964    -0.56100
C2146       C  0.97856212  0.83426976  0.25556933     0.77700
O2147       O  0.90342555  0.83743439  0.24118675    -0.58400
O2148       O  0.92771816  0.78042972  0.23243323    -0.56900
O2149       O  0.89560270  0.87161865  0.18501529    -0.56900
O2150       O  0.95886121  0.82966057  0.22220614    -0.56100
C2151       C  0.70414533  0.74257238  0.23957663     0.02800
C2152       C  0.71007247  0.77094324  0.24650420     0.02800
C2153       C  0.72832514  0.78420872  0.24508579    -0.17700
C2154       C  0.74234175  0.76946577  0.23899418     0.02800
C2155       C  0.73741697  0.74104981  0.23328138     0.02800
C2156       C  0.71799575  0.72790865  0.23309414    -0.17700
H2157       H  0.71445059  0.70606960  0.22900223     0.04800
H2158       H  0.73290012  0.80589327  0.25045436     0.04800
O2159       O  0.59860577  0.72348209  0.36421910    -0.57300
C2160       C  0.61459325  0.63884036  0.38543741     0.75400
O2161       O  0.02433704  0.66751754  0.27313085    -0.58400
C2162       C  0.57907909  0.73714414  0.33523317     0.75300
C2163       C  0.60756980  0.68136358  0.30832566     0.77700
Cd2164     Cd  0.57957004  0.67931099  0.33040183     1.37500
O2165       O  0.61499069  0.66342849  0.39247587    -0.57300
O2166       O  0.62113456  0.69093348  0.33812010    -0.56100
C2167       C  0.01404498  0.66920086  0.28511659     0.77700
O2168       O  0.58146226  0.66878773  0.28924210    -0.58400
O2169       O  0.59819845  0.63315547  0.35325429    -0.56900
O2170       O  0.55957102  0.72393535  0.30585356    -0.56900
O2171       O  0.53445240  0.67315584  0.31876400    -0.56100
O2172       O  0.90030853  0.72224870  0.17845390    -0.57300
C2173       C  0.88224061  0.63641648  0.16025896     0.75400
O2174       O  0.96882889  0.66786971  0.27175867    -0.58400
C2175       C  0.91349663  0.73737680  0.20513395     0.75300
C2176       C  0.87630472  0.67906856  0.22181088     0.77700
Cd2177     Cd  0.91385778  0.67940582  0.21219888     1.37500
O2178       O  0.88157685  0.66080479  0.15236738    -0.57300
O2179       O  0.86411866  0.67976064  0.19099436    -0.56100
C2180       C  0.97986177  0.66935590  0.26055908     0.77700
O2181       O  0.90638753  0.67715346  0.24892341    -0.58400
O2182       O  0.89819987  0.63176978  0.19249230    -0.56900
O2183       O  0.92652914  0.72563994  0.23353679    -0.56900
O2184       O  0.96013020  0.67323427  0.22712501    -0.56100
C2185       C  0.68624127  0.72763549  0.24267380    -0.19300
C2186       C  0.65403257  0.73325209  0.22033949     0.36900
C2187       C  0.64085809  0.72283511  0.22979668    -0.25300
C2188       C  0.65886534  0.70661934  0.26051210     0.03300
C2189       C  0.68979127  0.69881112  0.28061051     0.28100
C2190       C  0.70315017  0.70938634  0.27141081    -0.24400
N2191       N  0.63401785  0.74905523  0.18789532    -0.81800
H2192       H  0.61671782  0.72812993  0.21371539     0.13900
C2193       C  0.64614223  0.69992114  0.27312256     0.03300
N2194       N  0.70768061  0.68062645  0.31066294    -0.80400
H2195       H  0.72757107  0.70466149  0.28805259     0.18800
C2196       C  0.62260302  0.67963836  0.25503048    -0.25200
C2197       C  0.61002771  0.67250962  0.26634020     0.36800
C2198       C  0.62119680  0.68615799  0.29630201    -0.19200
C2199       C  0.64483845  0.70640749  0.31427874    -0.24500
C2200       C  0.65708083  0.71375025  0.30287595     0.28200
H2201       H  0.61418595  0.66923387  0.23213531     0.13900
N2202       N  0.58611337  0.65150635  0.24755548    -0.81800
H2203       H  0.65342035  0.71734595  0.33699659     0.18800
N2204       N  0.68029579  0.73547788  0.32202544    -0.80400
H2205       H  0.58017508  0.64393545  0.22581142     0.34400
H2206       H  0.59608679  0.63535749  0.26548265     0.38900
H2207       H  0.66927356  0.75314016  0.31851030     0.34400
H2208       H  0.68775782  0.73960089  0.31135895     0.31100
H2209       H  0.72964420  0.67634020  0.32188598     0.34400
H2210       H  0.71274881  0.69061319  0.33081867     0.31100
H2211       H  0.64601374  0.75525625  0.18307158     0.38900
H2212       H  0.62733695  0.76654108  0.19123414     0.34400
C2213       C  0.75438616  0.72481475  0.23007606    -0.19300
C2214       C  0.78377034  0.71287047  0.26090487     0.36900
C2215       C  0.80244041  0.70216325  0.25886159    -0.25300
C2216       C  0.79215699  0.70295420  0.22650456     0.03300
C2217       C  0.76132533  0.71274742  0.19477464     0.28100
C2218       C  0.74291771  0.72391484  0.19707374    -0.24400
N2219       N  0.79518151  0.71294960  0.29457309    -0.81800
H2220       H  0.82555267  0.69378401  0.28288744     0.13900
C2221       C  0.81475557  0.69504145  0.22708473     0.03300
N2222       N  0.74896519  0.71170809  0.16054562    -0.80400
H2223       H  0.71999047  0.73272475  0.17335226     0.18800
C2224       C  0.80558911  0.67587397  0.20212016    -0.25200
C2225       C  0.82586251  0.66950043  0.20076490     0.36800
C2226       C  0.85621534  0.68197739  0.22553921    -0.19200
C2227       C  0.86596955  0.70011825  0.25153860    -0.24500
C2228       C  0.84536002  0.70712611  0.25207529     0.28200
H2229       H  0.78240787  0.66612179  0.18334740     0.13900
N2230       N  0.81571358  0.65057978  0.17420287    -0.81800
H2231       H  0.88900834  0.71016428  0.27019225     0.18800
N2232       N  0.85509739  0.72751627  0.27699880    -0.80400
H2233       H  0.79268203  0.64339294  0.15782153     0.34400
H2234       H  0.83072007  0.63377302  0.18801724     0.38900
H2235       H  0.86069908  0.74526630  0.27251584     0.34400
H2236       H  0.87584790  0.72089851  0.30318667     0.31100
H2237       H  0.72603497  0.71975395  0.14009408     0.34400
H2238       H  0.76327783  0.72403816  0.16225188     0.31100
H2239       H  0.77980397  0.70062227  0.29119278     0.38900
H2240       H  0.81765560  0.70407173  0.31494615     0.34400
C2241       C  0.85933504  0.82015575  0.22621221    -0.19300
C2242       C  0.86004557  0.83909551  0.24547360     0.36900
C2243       C  0.84216899  0.83366055  0.25050512    -0.25300
C2244       C  0.82368814  0.80983515  0.23641534     0.03300
C2245       C  0.82300067  0.79103649  0.21721433     0.28100
C2246       C  0.84090229  0.79631839  0.21245162    -0.24400
N2247       N  0.87832297  0.86384588  0.25919395    -0.81800
H2248       H  0.84237010  0.84804356  0.26509656     0.13900
C2249       C  0.80443157  0.80442835  0.24099026     0.03300
N2250       N  0.80438891  0.76643934  0.20302378    -0.80400
H2251       H  0.84054969  0.78158602  0.19798475     0.18800
C2252       C  0.77151890  0.80873302  0.21113996    -0.25200
C2253       C  0.75078915  0.79831602  0.21043763     0.36800
C2254       C  0.76344166  0.78377219  0.24042811    -0.19200
C2255       C  0.79647779  0.78127269  0.27135047    -0.24500
C2256       C  0.81724113  0.79130130  0.27201729     0.28200
H2257       H  0.76188208  0.81887335  0.18750920     0.13900
N2258       N  0.71696169  0.80171076  0.17909290    -0.81800
H2259       H  0.80611344  0.77053378  0.29466521     0.18800
N2260       N  0.85085975  0.78747681  0.30428339    -0.80400
H2261       H  0.71159012  0.81302083  0.15942590     0.34400
H2262       H  0.70668300  0.78246275  0.16782182     0.38900
H2263       H  0.85501627  0.76659539  0.30873923     0.34400
H2264       H  0.86407403  0.79505461  0.30156707     0.31100
H2265       H  0.80767745  0.75420114  0.19105845     0.34400
H2266       H  0.78039707  0.77186125  0.18238581     0.31100
H2267       H  0.86822431  0.87534542  0.23698239     0.38900
H2268       H  0.87641636  0.87541734  0.27288554     0.34400
C2269       C  0.69912603  0.78668426  0.25761095    -0.19300
C2270       C  0.71150943  0.78153066  0.29085529     0.36900
C2271       C  0.69706387  0.79341184  0.29800329    -0.25300
C2272       C  0.67099557  0.81073980  0.27286146     0.03300
C2273       C  0.66096488  0.81824001  0.24146318     0.28100
C2274       C  0.67510278  0.80597714  0.23401581    -0.24400
N2275       N  0.73818296  0.76374554  0.31672164    -0.81800
H2276       H  0.70540005  0.78838081  0.32267328     0.13900
C2277       C  0.65323143  0.81896401  0.27882109     0.03300
N2278       N  0.63605402  0.83776443  0.21702326    -0.80400
H2279       H  0.66645695  0.81051491  0.20905472     0.18800
C2280       C  0.66961689  0.83185100  0.31139990    -0.25200
C2281       C  0.65468992  0.83656475  0.32020231     0.36800
C2282       C  0.62268124  0.82830948  0.29575191    -0.19200
C2283       C  0.60582207  0.81677335  0.26235594    -0.24500
C2284       C  0.62095655  0.81141957  0.25395483     0.28200
H2285       H  0.69439509  0.83757201  0.33040781     0.13900
N2286       N  0.67200385  0.84930710  0.35402947    -0.81800
H2287       H  0.58134451  0.81023265  0.24376728     0.18800
N2288       N  0.60418082  0.79708443  0.22117174    -0.80400
H2289       H  0.69535729  0.85384603  0.36902929     0.34400
H2290       H  0.66110617  0.86788439  0.34816316     0.38900
H2291       H  0.58066281  0.79300251  0.20588020     0.34400
H2292       H  0.61512121  0.77824556  0.22845110     0.31100
H2293       H  0.63128514  0.84082270  0.19507000     0.34400
H2294       H  0.64445674  0.85633472  0.23088161     0.31100
H2295       H  0.75774784  0.77291022  0.32531377     0.38900
H2296       H  0.74412353  0.76180145  0.33961024     0.34400
C2297       C  0.52070848  0.52241898  0.00385032    -0.19300
C2298       C  0.51249458  0.54578973  0.98376976     0.36900
C2299       C  0.53483939  0.55651299  0.48687732    -0.25300
C2300       C  0.56388371  0.54441637  0.00813776     0.03300
C2301       C  0.57308218  0.52234201  0.03020866     0.28100
C2302       C  0.55160599  0.51192254  0.02844408    -0.24400
N2303       N  0.48177349  0.55745575  0.45952479    -0.81800
H2304       H  0.52813865  0.57348984  0.47005541     0.13900
C2305       C  0.58271979  0.55151223  0.50329911     0.03300
N2306       N  0.60332924  0.50964705  0.05257613    -0.80400
H2307       H  0.55757752  0.99374233  0.04484910     0.18800
C2308       C  0.60774747  0.57032598  0.02585905    -0.25200
C2309       C  0.62434033  0.57831140  0.01967730     0.36800
C2310       C  0.61558467  0.56681071  0.49029092    -0.19200
C2311       C  0.59086973  0.54730076  0.46834202    -0.24500
C2312       C  0.57442596  0.53956979  0.47451336     0.28200
H2313       H  0.61455029  0.57868314  0.04863708     0.13900
N2314       N  0.65017504  0.59761771  0.04342770    -0.81800
H2315       H  0.58443922  0.53769679  0.44630665     0.18800
N2316       N  0.54952354  0.51930388  0.45191163    -0.80400
H2317       H  0.65416888  0.60333934  0.06433427     0.34400
H2318       H  0.64316224  0.61517093  0.02846399     0.38900
H2319       H  0.54711943  0.51173238  0.43275604     0.34400
H2320       H  0.52807378  0.52883751  0.43738660     0.31100
H2321       H  0.60620628  0.99159668  0.06837458     0.34400
H2322       H  0.62106507  0.52384654  0.07222516     0.31100
H2323       H  0.96499215  0.54324478  0.43903539     0.38900
H2324       H  0.97974679  0.57454627  0.44695424     0.34400
C2325       C  0.94291701  0.52021962  0.00271313    -0.19300
C2326       C  0.92333343  0.54313764  0.98305576     0.36900
C2327       C  0.90908609  0.55473024  0.99068534    -0.25300
C2328       C  0.91364874  0.54340359  0.01696076     0.03300
C2329       C  0.93278740  0.52022752  0.03616287     0.28100
C2330       C  0.94781996  0.50924711  0.02938685    -0.24400
N2331       N  0.91752434  0.55411187  0.95503075    -0.81800
H2332       H  0.89387204  0.57226316  0.97566574     0.13900
C2333       C  0.89692994  0.55493649  0.02294066     0.03300
N2334       N  0.93566108  0.50722530  0.06119174    -0.80400
H2335       H  0.96320847  0.99242004  0.04418912     0.18800
C2336       C  0.86536670  0.54694589  0.99995689    -0.25200
C2337       C  0.84989068  0.55442658  0.00746512     0.36800
C2338       C  0.86670707  0.56989484  0.03894897    -0.19200
C2339       C  0.89770077  0.57918609  0.06069040    -0.24500
C2340       C  0.91284217  0.57219773  0.05264236     0.28200
H2341       H  0.85323724  0.53397632  0.97687339     0.13900
N2342       N  0.81776855  0.54514802  0.48419206    -0.81800
H2343       H  0.91035331  0.59147559  0.08444328     0.18800
N2344       N  0.94412332  0.58264925  0.07427759    -0.80400
H2345       H  0.80898574  0.53400163  0.46232520     0.34400
H2346       H  0.81822607  0.53178408  0.49886837     0.38900
H2347       H  0.95213502  0.59559251  0.09456479     0.34400
H2348       H  0.95987611  0.56637199  0.08738494     0.31100
H2349       H  0.95010170  0.99034688  0.07194660     0.34400
H2350       H  0.94808733  0.52037517  0.08311286     0.31100
H2351       H  0.90525884  0.53928952  0.93475312     0.38900
H2352       H  0.90254227  0.57092081  0.94314777     0.34400
C2353       C  0.85308303  0.93399698  0.02076791    -0.19300
C2354       C  0.86058260  0.96025709  0.01850990     0.36900
C2355       C  0.86911807  0.96352479  0.00239512    -0.25300
C2356       C  0.87086092  0.94118396  0.98872735     0.03300
C2357       C  0.86220059  0.91507406  0.98948828     0.28100
C2358       C  0.85308038  0.91174928  0.00528393    -0.24400
N2359       N  0.85928901  0.98410666  0.03180977    -0.81800
H2360       H  0.87572524  0.98363212  0.00185925     0.13900
C2361       C  0.88586811  0.94552023  0.97842863     0.03300
N2362       N  0.86311926  0.89214041  0.97466597    -0.80400
H2363       H  0.84680131  0.89169334  0.00639593     0.18800
C2364       C  0.91541092  0.93349637  0.99966875    -0.25200
C2365       C  0.93513740  0.94278884  0.99841086     0.36800
C2366       C  0.92485254  0.96445496  0.97521051    -0.19200
C2367       C  0.89390884  0.97451243  0.95125647    -0.24500
C2368       C  0.87436323  0.96539289  0.95286608     0.28200
H2369       H  0.92421759  0.91835869  0.01943146     0.13900
N2370       N  0.46668493  0.93212321  0.02303767    -0.81800
H2371       H  0.88651472  0.98995489  0.43340287     0.18800
N2372       N  0.84384731  0.97632254  0.42987013    -0.80400
H2373       H  0.47147959  0.91802158  0.04044275     0.34400
H2374       H  0.46724318  0.92125267  0.00776226     0.38900
H2375       H  0.83922312  0.99091462  0.41298048     0.34400
H2376       H  0.82680389  0.96086392  0.41307682     0.31100
H2377       H  0.85615828  0.87437770  0.97746414     0.34400
H2378       H  0.84624997  0.89538444  0.94691066     0.31100
H2379       H  0.83676334  0.98503206  0.02011718     0.38900
H2380       H  0.87656937  0.98280861  0.05986247     0.34400
C2381       C  0.50297610  0.96532276  0.97744532    -0.19300
C2382       C  0.49821149  0.97161188  0.94936794     0.36900
C2383       C  0.51973900  0.96107323  0.45146745    -0.25300
C2384       C  0.54368164  0.94358336  0.97855492     0.03300
C2385       C  0.54734356  0.93607377  0.00541032     0.28100
C2386       C  0.52656487  0.94677618  0.00431068    -0.24400
N2387       N  0.47387376  0.48905805  0.42098591    -0.81800
H2388       H  0.51665580  0.96672930  0.43053666     0.13900
C2389       C  0.56748657  0.93536201  0.48092383     0.03300
N2390       N  0.57261534  0.91825387  0.03407324    -0.80400
H2391       H  0.52993909  0.94198183  0.02564822     0.18800
C2392       C  0.59805054  0.94551563  0.00856185    -0.25200
C2393       C  0.61916777  0.94204034  0.00791499     0.36800
C2394       C  0.60910154  0.92693269  0.47893430    -0.19200
C2395       C  0.57781744  0.91665228  0.45126475    -0.24500
C2396       C  0.55690763  0.92064573  0.45204219     0.28200
H2397       H  0.60532349  0.95756499  0.02988021     0.13900
N2398       N  0.65030185  0.95445872  0.03534102    -0.81800
H2399       H  0.56939101  0.90616673  0.42840045     0.18800
N2400       N  0.52469153  0.91055006  0.42317305    -0.80400
H2401       H  0.65418873  0.96420020  0.05479081     0.34400
H2402       H  0.65087437  0.96967308  0.02298335     0.38900
H2403       H  0.52059699  0.90032100  0.40380396     0.34400
H2404       H  0.52189977  0.89617282  0.43417485     0.31100
H2405       H  0.57214208  0.91491330  0.05181207     0.34400
H2406       H  0.56834137  0.89941172  0.02241592     0.31100
H2407       H  0.45894150  0.49455412  0.42191899     0.38900
H2408       H  0.48417041  0.50691656  0.42324767     0.34400
O2409       O  0.62674266  0.91341457  0.89812210    -0.57300
C2410       C  0.66238869  0.98884304  0.95575897     0.75400
O2411       O  0.65763242  0.92447535  0.99910898    -0.58400
C2412       C  0.62867889  0.88876287  0.90628538     0.75300
C2413       C  0.72638369  0.92025124  0.00369969     0.77700
Cd2414     Cd  0.66157442  0.93067393  0.95935575     1.37500
O2415       O  0.64458920  0.97509311  0.92672848    -0.57300
O2416       O  0.70556433  0.92450767  0.97011424    -0.56100
C2417       C  0.62762738  0.92721082  0.97340185     0.77700
O2418       O  0.71688770  0.91870201  0.01662627    -0.58400
O2419       O  0.67920924  0.97568718  0.98460158    -0.56900
O2420       O  0.64642534  0.88360178  0.93900972    -0.56900
O2421       O  0.61409616  0.93040373  0.94209905    -0.56100
O2422       O  0.86204530  0.91114581  0.63224899    -0.57300
C2423       C  0.82958473  0.98512228  0.58211085     0.75400
O2424       O  0.82266805  0.91348803  0.52581706    -0.58400
C2425       C  0.86206120  0.88672308  0.62523925     0.75300
C2426       C  0.76015752  0.91953345  0.02671448     0.77700
Cd2427     Cd  0.82578549  0.92759940  0.57038002     1.37500
O2428       O  0.85223986  0.97020819  0.60849847    -0.57300
O2429       O  0.78192251  0.92153355  0.56080707    -0.56100
C2430       C  0.84478582  0.92948263  0.53839103     0.78900
O2431       O  0.76912149  0.91893206  0.01323027    -0.58400
O2432       O  0.80580863  0.97323522  0.55251979    -0.56900
O2433       O  0.84576382  0.88124229  0.59307580    -0.56900
O2434       O  0.85919662  0.94246250  0.56682423    -0.56100
C2435       C  0.49624546  0.50717551  0.49657145     0.02800
C2436       C  0.48765342  0.97995777  0.48346189     0.02800
C2437       C  0.46386988  0.96639519  0.47569541    -0.17700
C2438       C  0.44869193  0.97916495  0.48140087     0.02800
C2439       C  0.45720907  0.50638800  0.49455972     0.02800
C2440       C  0.48054350  0.52016364  0.50153007    -0.17700
H2441       H  0.48711266  0.54086756  0.51180055     0.04800
H2442       H  0.45733174  0.94571606  0.46537271     0.04800
O2443       O  0.63167016  0.59331570  0.90576584    -0.57300
C2444       C  0.66308416  0.51833844  0.95723699     0.75400
O2445       O  0.72171177  0.58463277  0.02529299    -0.58400
C2446       C  0.63225542  0.61780395  0.91321437     0.75300
C2447       C  0.63227822  0.57314644  0.98222016     0.77700
Cd2448     Cd  0.66519131  0.57601429  0.96629622     1.37500
O2449       O  0.64645430  0.53341297  0.92970195    -0.57300
O2450       O  0.62005431  0.56626172  0.95223139    -0.56100
C2451       C  0.73137045  0.58442209  0.01251672     0.77700
O2452       O  0.65992255  0.58382361  0.00512807    -0.58400
O2453       O  0.68066403  0.53009281  0.98734320    -0.56900
O2454       O  0.64840045  0.62312681  0.94542039    -0.56900
O2455       O  0.71034325  0.58259518  0.97852457    -0.56100
O2456       O  0.86481420  0.59015454  0.64019750    -0.57300
C2457       C  0.83032006  0.51494073  0.58372926     0.75400
O2458       O  0.77485853  0.58719029  0.02313029    -0.58400
C2459       C  0.86484109  0.61457913  0.63299183     0.75300
C2460       C  0.85389507  0.57360242  0.55184290     0.77700
Cd2461     Cd  0.82974364  0.57315587  0.57822412     1.37500
O2462       O  0.85324672  0.52871999  0.61204315    -0.57300
O2463       O  0.87201460  0.57247488  0.58519303    -0.56100
C2464       C  0.76530504  0.58384889  0.03582777     0.77700
O2465       O  0.82452039  0.57672161  0.53054854    -0.58400
O2466       O  0.80785976  0.52810390  0.55528112    -0.56900
O2467       O  0.84876527  0.61961813  0.60083856    -0.56900
O2468       O  0.78596353  0.57787328  0.56878730    -0.56100
O2469       O  0.61348778  0.84243594  0.88745571    -0.57300
C2470       C  0.57943483  0.76698855  0.83448229     0.75400
O2471       O  0.52333816  0.83511827  0.76854492    -0.58400
C2472       C  0.61117727  0.86708130  0.87913977     0.75300
C2473       C  0.60772307  0.82883161  0.80625252     0.77700
Cd2474     Cd  0.57829132  0.82490420  0.82632419     1.37500
O2475       O  0.59808168  0.78200572  0.86248232    -0.57300
O2476       O  0.62360975  0.82468589  0.83846867    -0.56100
C2477       C  0.01285747  0.83427515  0.78034632     0.77700
O2478       O  0.57802036  0.83193488  0.78312413    -0.58400
O2479       O  0.56098766  0.77879115  0.80445665    -0.56900
O2480       O  0.59306008  0.87217777  0.84631634    -0.56900
O2481       O  0.53303797  0.83133711  0.81406332    -0.56100
O2482       O  0.87908398  0.84106396  0.64588514    -0.57300
C2483       C  0.91366226  0.76693936  0.70430778     0.75400
O2484       O  0.96758140  0.83672110  0.76659019    -0.58400
C2485       C  0.87968635  0.86571763  0.65296348     0.75300
C2486       C  0.87742968  0.82397236  0.71961866     0.77700
Cd2487     Cd  0.91269359  0.82495910  0.70728046     1.37500
O2488       O  0.89935243  0.78053777  0.67625097    -0.57300
O2489       O  0.86776235  0.81298942  0.69245569    -0.56100
C2490       C  0.97870231  0.83416978  0.75559745     0.77700
O2491       O  0.90350578  0.83723360  0.74109031    -0.58400
O2492       O  0.92777936  0.78023992  0.73244631    -0.56900
O2493       O  0.89585644  0.87142490  0.68505389    -0.56900
O2494       O  0.95905647  0.82946915  0.72226337    -0.56100
C2495       C  0.70449440  0.74259797  0.73994029     0.02800
C2496       C  0.71036963  0.77097824  0.74679197     0.02800
C2497       C  0.72859576  0.78424343  0.74533242    -0.17700
C2498       C  0.74262815  0.76949004  0.73926470     0.02800
C2499       C  0.73777520  0.74106221  0.73366313     0.02800
C2500       C  0.71838643  0.72792162  0.73352113    -0.17700
H2501       H  0.71488216  0.70607637  0.72949088     0.04800
H2502       H  0.73311552  0.80593862  0.75061960     0.04800
O2503       O  0.59884411  0.72356817  0.86437401    -0.57300
C2504       C  0.61477161  0.63890161  0.88558965     0.75400
O2505       O  0.02452179  0.66749243  0.77328761    -0.58400
C2506       C  0.57930351  0.73725217  0.83541007     0.75300
C2507       C  0.60770938  0.68128684  0.80840666     0.77700
Cd2508     Cd  0.57974018  0.67937355  0.83052718     1.37500
O2509       O  0.61523889  0.66350477  0.89264605    -0.57300
O2510       O  0.62141022  0.69066043  0.83833820    -0.56100
C2511       C  0.01422426  0.66916749  0.78526730     0.77700
O2512       O  0.58144505  0.66894807  0.78916249    -0.58400
O2513       O  0.59829330  0.63320111  0.85337952    -0.56900
O2514       O  0.55977371  0.72405387  0.80602197    -0.56900
O2515       O  0.53462276  0.67318690  0.81890268    -0.56100
O2516       O  0.90052248  0.72201869  0.67858477    -0.57300
C2517       C  0.88226529  0.63627050  0.66029415     0.75400
O2518       O  0.96899601  0.66767985  0.77189198    -0.58400
C2519       C  0.91362891  0.73716496  0.70521821     0.75300
C2520       C  0.87643001  0.67895853  0.72189398     0.77700
Cd2521     Cd  0.91400240  0.67920532  0.71231880     1.37500
O2522       O  0.88167299  0.66066034  0.65246765    -0.57300
O2523       O  0.86425344  0.67965534  0.69108328    -0.56100
C2524       C  0.98003558  0.66924177  0.76070354     0.77700
O2525       O  0.90650634  0.67697784  0.74901277    -0.58400
O2526       O  0.89823318  0.63158082  0.69252341    -0.56900
O2527       O  0.92656998  0.72544971  0.73359172    -0.56900
O2528       O  0.96029850  0.67312279  0.72726891    -0.56100
C2529       C  0.68659286  0.72766439  0.74304165    -0.19300
C2530       C  0.65435141  0.73321307  0.72062952     0.36900
C2531       C  0.64114540  0.72276018  0.73003599    -0.25300
C2532       C  0.65915810  0.70658363  0.76078547     0.03300
C2533       C  0.69013648  0.69885761  0.78098323     0.28100
C2534       C  0.70352169  0.70946460  0.77182864    -0.24400
N2535       N  0.63433450  0.74898080  0.68815692    -0.81800
H2536       H  0.61697486  0.72800251  0.71389032     0.13900
C2537       C  0.64638681  0.69986228  0.77333659     0.03300
N2538       N  0.70804990  0.68071996  0.81108523    -0.80400
H2539       H  0.72797086  0.70479631  0.78853306     0.18800
C2540       C  0.62280218  0.67960768  0.75516907    -0.25200
C2541       C  0.61018849  0.67246462  0.76643282     0.36800
C2542       C  0.62136735  0.68606820  0.79642103    -0.19200
C2543       C  0.64505715  0.70627857  0.81447582    -0.24500
C2544       C  0.65732587  0.71364687  0.80311295     0.28200
H2545       H  0.61438250  0.66923683  0.73225581     0.13900
N2546       N  0.58624233  0.65148433  0.74759326    -0.81800
H2547       H  0.65364203  0.71718343  0.83721325     0.18800
N2548       N  0.68056001  0.73536304  0.82232080    -0.80400
H2549       H  0.58032560  0.64392497  0.72585955     0.34400
H2550       H  0.59617542  0.63532283  0.76549317     0.38900
H2551       H  0.66955960  0.75301256  0.81887418     0.34400
H2552       H  0.68800540  0.73954609  0.81164669     0.31100
H2553       H  0.73005118  0.67649041  0.82237496     0.34400
H2554       H  0.71304393  0.69071679  0.83118411     0.31100
H2555       H  0.64635652  0.75521618  0.68337741     0.38900
H2556       H  0.62757723  0.76644777  0.69142593     0.34400
C2557       C  0.75472891  0.72482221  0.73044380    -0.19300
C2558       C  0.78417918  0.71296849  0.76128397     0.36900
C2559       C  0.80280733  0.70226537  0.75917924    -0.25300
C2560       C  0.79240885  0.70296406  0.72674722     0.03300
C2561       C  0.76151409  0.71265061  0.69502179     0.28100
C2562       C  0.74314907  0.72381429  0.69738018    -0.24400
N2563       N  0.79568569  0.71312377  0.79500947    -0.81800
H2564       H  0.82597154  0.69396218  0.78320786     0.13900
C2565       C  0.81494800  0.69506594  0.72723533     0.03300
N2566       N  0.74905056  0.71151732  0.66073683    -0.80400
H2567       H  0.72016568  0.73254198  0.67365111     0.18800
C2568       C  0.80577286  0.67583992  0.70231432    -0.25200
C2569       C  0.82600193  0.66945638  0.70089773     0.36800
C2570       C  0.85634465  0.68194349  0.72561564    -0.19200
C2571       C  0.86609116  0.70017525  0.75153970    -0.24500
C2572       C  0.84550125  0.70722733  0.75209042     0.28200
H2573       H  0.78261815  0.66605120  0.68362019     0.13900
N2574       N  0.81581384  0.65052247  0.67432440    -0.81800
H2575       H  0.88910397  0.71025601  0.77011376     0.18800
N2576       N  0.85519785  0.72773941  0.77687846    -0.80400
H2577       H  0.79278428  0.64334756  0.65797023     0.34400
H2578       H  0.83081455  0.63371201  0.68812879     0.38900
H2579       H  0.86068040  0.74545737  0.77220994     0.34400
H2580       H  0.87600793  0.72123989  0.80310765     0.31100
H2581       H  0.72607908  0.71948306  0.64029368     0.34400
H2582       H  0.76325913  0.72387617  0.66230230     0.31100
H2583       H  0.78038029  0.70078797  0.79174446     0.38900
H2584       H  0.81818765  0.70429166  0.81537199     0.34400
C2585       C  0.85927927  0.82008960  0.72592968    -0.19300
C2586       C  0.86007289  0.83900411  0.74528049     0.36900
C2587       C  0.84213899  0.83361875  0.75024403    -0.25300
C2588       C  0.82353939  0.80985631  0.73602640     0.03300
C2589       C  0.82276357  0.79108518  0.71672860     0.28100
C2590       C  0.84070162  0.79632897  0.71200705    -0.24400
N2591       N  0.87852095  0.86366814  0.75919494    -0.81800
H2592       H  0.84242424  0.84797402  0.76492859     0.13900
C2593       C  0.80436975  0.80443141  0.74071839     0.03300
N2594       N  0.80407199  0.76652949  0.70245468    -0.80400
H2595       H  0.84028748  0.78161269  0.69747518     0.18800
C2596       C  0.77143122  0.80862942  0.71090653    -0.25200
C2597       C  0.75081364  0.79821328  0.71037542     0.36800
C2598       C  0.76360565  0.78380586  0.74051344    -0.19200
C2599       C  0.79666230  0.78141440  0.77138555    -0.24500
C2600       C  0.81731391  0.79141641  0.77187100     0.28200
H2601       H  0.76168927  0.81868329  0.68717880     0.13900
N2602       N  0.71695933  0.80146539  0.67905601    -0.81800
H2603       H  0.80640313  0.77076220  0.79480009     0.18800
N2604       N  0.85095882  0.78766044  0.80408172    -0.80400
H2605       H  0.71147731  0.81268558  0.65926562     0.34400
H2606       H  0.70677570  0.78216799  0.66794844     0.38900
H2607       H  0.85516105  0.76679064  0.80865980     0.34400
H2608       H  0.86408891  0.79516217  0.80122150     0.31100
H2609       H  0.80734141  0.75428363  0.69047524     0.34400
H2610       H  0.78009681  0.77200319  0.68181195     0.31100
H2611       H  0.86852253  0.87524190  0.73707650     0.38900
H2612       H  0.87667225  0.87522282  0.77295007     0.34400
C2613       C  0.69938618  0.78672184  0.75785477    -0.19300
C2614       C  0.71177210  0.78159415  0.79110450     0.36900
C2615       C  0.69726707  0.79342647  0.79819924    -0.25300
C2616       C  0.67115344  0.81070558  0.77301433     0.03300
C2617       C  0.66111050  0.81818358  0.74160130     0.28100
C2618       C  0.67529562  0.80595243  0.73419668    -0.24400
N2619       N  0.73851551  0.76388586  0.81703526    -0.81800
H2620       H  0.70560970  0.78840852  0.82287612     0.13900
C2621       C  0.65341132  0.81895822  0.77899881     0.03300
N2622       N  0.63615097  0.83766122  0.71711164    -0.80400
H2623       H  0.66664023  0.81046713  0.70922537     0.18800
C2624       C  0.66982198  0.83187424  0.81157314    -0.25200
C2625       C  0.65491984  0.83664626  0.82039787     0.36800
C2626       C  0.62290725  0.82841852  0.79597685    -0.19200
C2627       C  0.60602389  0.81684953  0.76258345    -0.24500
C2628       C  0.62113284  0.81144185  0.75415802     0.28200
H2629       H  0.69460071  0.83758073  0.83055901     0.13900
N2630       N  0.67226249  0.84942637  0.85421618    -0.81800
H2631       H  0.58154299  0.81033001  0.74401299     0.18800
N2632       N  0.60432374  0.79708821  0.72137305    -0.80400
H2633       H  0.69561340  0.85394087  0.86919211     0.34400
H2634       H  0.66138187  0.86801845  0.84833539     0.38900
H2635       H  0.58080594  0.79303522  0.70609902     0.34400
H2636       H  0.61524063  0.77823636  0.72864858     0.31100
H2637       H  0.63139249  0.84071837  0.69516564     0.34400
H2638       H  0.64449741  0.85624452  0.73093195     0.31100
H2639       H  0.75805044  0.77311285  0.82561348     0.38900
H2640       H  0.74445054  0.76195000  0.83992068     0.34400
C2641       C  0.52085865  0.52230954  0.50402654    -0.19300
C2642       C  0.51279294  0.54565013  0.48397976     0.36900
C2643       C  0.53438576  0.55672468  0.98646695    -0.25300
C2644       C  0.56437908  0.54419419  0.50878525     0.03300
C2645       C  0.57340540  0.52214316  0.53079318     0.28100
C2646       C  0.55175614  0.51177318  0.52878186    -0.24400
N2647       N  0.48146670  0.55754262  0.95945449    -0.81800
H2648       H  0.52758163  0.57375282  0.96965048     0.13900
C2649       C  0.58207106  0.55190542  0.00249332     0.03300
N2650       N  0.60369373  0.50944563  0.55339613    -0.80400
H2651       H  0.55829731  0.99455497  0.54490331     0.18800
C2652       C  0.60748790  0.57084373  0.52564730    -0.25200
C2653       C  0.62401329  0.57875878  0.51935170     0.36800
C2654       C  0.61511548  0.56729044  0.98973840    -0.19200
C2655       C  0.58942028  0.54873924  0.96669233    -0.24500
C2656       C  0.57286714  0.54098200  0.97271537     0.28200
H2657       H  0.61361137  0.57996341  0.54768420     0.13900
N2658       N  0.64892645  0.59895489  0.54204348    -0.81800
H2659       H  0.58231661  0.53986874  0.94392044     0.18800
N2660       N  0.54700611  0.52163103  0.94901924    -0.80400
H2661       H  0.65241899  0.60531851  0.56240899     0.34400
H2662       H  0.64123359  0.61597977  0.52605008     0.38900
H2663       H  0.54408666  0.51462247  0.92928271     0.34400
H2664       H  0.52607659  0.53180490  0.93523808     0.31100
H2665       H  0.60621075  0.99318715  0.56672608     0.34400
H2666       H  0.62137890  0.52367757  0.57303725     0.31100
H2667       H  0.96467214  0.54332536  0.93898396     0.38900
H2668       H  0.97932590  0.57466264  0.94683365     0.34400
C2669       C  0.94304441  0.52019689  0.50288562    -0.19300
C2670       C  0.92334226  0.54303715  0.48312803     0.36900
C2671       C  0.90903801  0.55457265  0.49070897    -0.25300
C2672       C  0.91367299  0.54326866  0.51704652     0.03300
C2673       C  0.93294484  0.52017353  0.53636399     0.28100
C2674       C  0.94801529  0.50924079  0.52961556    -0.24400
N2675       N  0.91746716  0.55398443  0.45504591    -0.81800
H2676       H  0.89372876  0.57204483  0.47560860     0.13900
C2677       C  0.89692522  0.55476512  0.52300262     0.03300
N2678       N  0.93591471  0.50719909  0.56148048    -0.80400
H2679       H  0.96257182  0.99150966  0.54405486     0.18800
C2680       C  0.86539461  0.54669289  0.50007015    -0.25200
C2681       C  0.84988005  0.55422593  0.50751508     0.36800
C2682       C  0.86663192  0.56981406  0.53889494    -0.19200
C2683       C  0.89759574  0.57916261  0.56059330    -0.24500
C2684       C  0.91276667  0.57213511  0.55259298     0.28200
H2685       H  0.85331335  0.53364720  0.47706177     0.13900
N2686       N  0.81775903  0.54539337  0.98410966    -0.81800
H2687       H  0.91019684  0.59153841  0.58426757     0.18800
N2688       N  0.94400143  0.58266504  0.57415401    -0.80400
H2689       H  0.80891548  0.53436752  0.96214115     0.34400
H2690       H  0.81820636  0.53192410  0.99870383     0.38900
H2691       H  0.95195885  0.59568698  0.59435501     0.34400
H2692       H  0.95982582  0.56643733  0.58737051     0.31100
H2693       H  0.94896373  0.98960251  0.57129262     0.34400
H2694       H  0.94826790  0.52041153  0.58332739     0.31100
H2695       H  0.90527971  0.53911418  0.43483700     0.38900
H2696       H  0.90239265  0.57073230  0.44308386     0.34400
C2697       C  0.85297742  0.93351803  0.52048658    -0.19300
C2698       C  0.86010670  0.95977911  0.51776394     0.36900
C2699       C  0.86867366  0.96294099  0.50167312    -0.25300
C2700       C  0.87077031  0.94049191  0.48845364     0.03300
C2701       C  0.86232424  0.91438495  0.48952326     0.28100
C2702       C  0.85321547  0.91116009  0.50533785    -0.24400
N2703       N  0.85840478  0.98372346  0.53056892    -0.81800
H2704       H  0.87505826  0.98305673  0.50084356     0.13900
C2705       C  0.88600315  0.94472876  0.47841657     0.03300
N2706       N  0.86346509  0.89135557  0.47500889    -0.80400
H2707       H  0.84716158  0.89110436  0.50675587     0.18800
C2708       C  0.91564635  0.93276734  0.49997959    -0.25200
C2709       C  0.93556119  0.94203604  0.49898801     0.36800
C2710       C  0.92537202  0.96361398  0.47574225    -0.19200
C2711       C  0.89434428  0.97358017  0.45145666    -0.24500
C2712       C  0.87460085  0.96448050  0.45278772     0.28200
H2713       H  0.92437647  0.91772294  0.51979301     0.13900
N2714       N  0.46719192  0.93147154  0.52393968    -0.81800
H2715       H  0.88599103  0.99093990  0.93322084     0.18800
N2716       N  0.84371117  0.97731712  0.93029026    -0.80400
H2717       H  0.47186191  0.91740070  0.54128646     0.34400
H2718       H  0.46802200  0.92059159  0.50891131     0.38900
H2719       H  0.83899605  0.99199411  0.91341308     0.34400
H2720       H  0.82657287  0.96192565  0.91346729     0.31100
H2721       H  0.85663171  0.87361170  0.47799799     0.34400
H2722       H  0.84659151  0.89441041  0.44721744     0.31100
H2723       H  0.83583122  0.98447019  0.51877832     0.38900
H2724       H  0.87564715  0.98271850  0.55863653     0.34400
C2725       C  0.50398687  0.96520886  0.47861655    -0.19300
C2726       C  0.49913657  0.97169942  0.45051370     0.36900
C2727       C  0.51862274  0.96054918  0.95025096    -0.25300
C2728       C  0.54476101  0.94395020  0.47954906     0.03300
C2729       C  0.54852908  0.93626580  0.50645833     0.28100
C2730       C  0.52780817  0.94681452  0.50552733    -0.24400
N2731       N  0.47416910  0.48926447  0.92119723    -0.81800
H2732       H  0.51556349  0.96595819  0.92928296     0.13900
C2733       C  0.56679179  0.93529259  0.98045778     0.03300
N2734       N  0.57379752  0.91836071  0.53496208    -0.80400
H2735       H  0.53128816  0.94190052  0.52692136     0.18800
C2736       C  0.59922498  0.94439153  0.50962004    -0.25200
C2737       C  0.62021607  0.94046637  0.50884965     0.36800
C2738       C  0.60873329  0.92762655  0.97885207    -0.19200
C2739       C  0.57795934  0.91624474  0.95179368    -0.24500
C2740       C  0.55687864  0.91988186  0.95237699     0.28200
H2741       H  0.60707271  0.95584866  0.53162806     0.13900
N2742       N  0.65200564  0.95155454  0.53713862    -0.81800
H2743       H  0.57004503  0.90515810  0.92953723     0.18800
N2744       N  0.52512148  0.90873997  0.92406976    -0.80400
H2745       H  0.65637828  0.96068712  0.55720580     0.34400
H2746       H  0.65351700  0.96707076  0.52590001     0.38900
H2747       H  0.52148099  0.89809038  0.90524162     0.34400
H2748       H  0.52297797  0.89454320  0.93583381     0.31100
H2749       H  0.57340938  0.91489471  0.55275777     0.34400
H2750       H  0.56945491  0.89957921  0.52315908     0.31100
H2751       H  0.45917694  0.49472155  0.92205464     0.38900
H2752       H  0.48452296  0.50713514  0.92358235     0.34400
loop_ 
_geom_bond_atom_site_label_1 
_geom_bond_atom_site_label_2 
_geom_bond_distance 
_geom_bond_site_symmetry_2 
_ccdc_geom_bond_type 
O1            C4   1.270       .  A
O1           Cd6   2.445       .  S
C2           O11   1.261       .  A
C2            O7   1.269       .  A
C2          C724   1.464       .  S
O3            C9   1.269       .  A
O3           Cd6   2.478       .  S
C4           O12   1.266       .  A
C4           C64   1.459       .  S
C5           O10   1.268       .  A
C5            O8   1.265       .  A
C5           C18   1.461       .  S
Cd6          O13   2.406       .  S
Cd6          O12   2.428       .  S
Cd6          O11   2.395       .  S
Cd6           O7   2.521       .  S
Cd6          O10   2.461       .  S
Cd6           O8   2.431       .  S
C9           O13   1.263       .  A
C9          C330   1.472       .  S
O14          C17   1.266       .  A
O14         Cd19   2.455       .  S
C15          O24   1.262       .  A
C15          O20   1.268       .  A
C15         C737   1.464       .  S
O16          C22   1.266       .  A
O16         Cd19   2.486       .  S
C17          O25   1.264       .  A
C17          C77   1.462       .  S
C18          O23   1.265       .  A
C18         O365   1.265       .  A
Cd19         O26   2.425       .  S
Cd19         O25   2.458       .  S
Cd19         O24   2.404       .  S
Cd19         O20   2.517       .  S
Cd19         O21   2.462       .  S
Cd19        O367   2.448       .  S
O21         C362   1.265       .  A
C22          O26   1.263       .  A
C22         C289   1.475       .  S
O23        Cd363   2.447       .  S
C27         C233   1.492   1_656  S
C27          C32   1.401   1_556  A
C27         C716   1.417   1_545  A
C28         C317   1.474   1_655  S
C28          C29   1.398       .  A
C28         C715   1.417       .  A
C29          C30   1.398       .  A
C29          H34   1.084       .  S
C30        C1678   1.485       .  S
C30         C719   1.418       .  A
C31        C1637   1.481   1_556  S
C31          C32   1.403   1_556  A
C31         C718   1.418   1_545  A
C32          H33   1.084       .  S
O35          C38   1.267       .  A
O35         Cd40   2.441       .  S
C36          O45   1.262       .  A
C36          O41   1.269       .  A
C36         C690   1.464   1_545  S
O37          C43   1.268       .  A
O37         Cd40   2.476       .  S
C38          O46   1.267       .  A
C38          C96   1.462       .  S
C39          O44   1.271       .  A
C39          O42   1.264       .  A
C39         C246   1.487       .  S
Cd40         O47   2.450       .  S
Cd40         O46   2.453       .  S
Cd40         O45   2.396       .  S
Cd40         O41   2.514       .  S
Cd40         O44   2.509       .  S
Cd40         O42   2.410       .  S
C43          O47   1.264       .  A
C43          C56   1.466       .  S
O48          C51   1.269       .  A
O48         Cd53   2.470       .  S
C49          O58   1.260       .  A
C49          O54   1.268       .  A
C49         C703   1.464   1_545  S
O50          C56   1.268       .  A
O50        Cd397   2.460       .  S
C51          O59   1.266       .  A
C51         C109   1.464       .  S
C52          O57   1.266       .  A
C52          O55   1.264       .  A
C52         C274   1.476       .  S
Cd53         O60   2.457       .  S
Cd53         O59   2.438       .  S
Cd53         O58   2.401       .  S
Cd53         O54   2.527       .  S
Cd53         O57   2.473       .  S
Cd53         O55   2.446       .  S
Cd53        O394   2.461       .  S
C56         O404   1.266       .  A
O60         C400   1.266       .  A
O61          C64   1.268       .  A
O61         Cd66   2.442       .  S
C62          O71   1.261       .  A
C62          O67   1.267       .  A
C62          C98   1.463       .  S
O63        C1445   1.266       .  A
O63         Cd66   2.439       .  S
C64          O72   1.265       .  A
C65          O70   1.266       .  A
C65          O68   1.264       .  A
C65         C218   1.476       .  S
Cd66         O73   2.462       .  S
Cd66         O72   2.433       .  S
Cd66         O71   2.405       .  S
Cd66         O67   2.521       .  S
Cd66         O70   2.468       .  S
Cd66         O68   2.447       .  S
C69        O1439   1.266       .  A
C69        O1449   1.266       .  A
C69          C82   1.460       .  S
O73        C1445   1.266       .  A
O74          C77   1.269       .  A
O74         Cd79   2.458       .  S
C75          O84   1.263       .  A
C75          O80   1.271       .  A
C75         C111   1.465       .  S
O76          C82   1.268       .  A
O76         Cd79   2.468       .  S
C77          O85   1.265       .  A
C78          O83   1.270       .  A
C78          O81   1.265       .  A
C78         C177   1.476       .  S
Cd79         O86   2.421       .  S
Cd79         O85   2.439       .  S
Cd79         O84   2.396       .  S
Cd79         O80   2.509       .  S
Cd79         O83   2.482       .  S
Cd79         O81   2.397       .  S
C82          O86   1.264       .  A
C87         C121   1.485       .  S
C87          C88   1.418       .  A
C87          C92   1.403       .  A
C88         C205   1.479       .  S
C88          C89   1.399       .  A
C89          C90   1.398       .  A
C89          H94   1.084       .  S
C90         C190   1.476       .  S
C90          C91   1.413       .  A
C91         C149   1.480       .  S
C91          C92   1.400       .  A
C92          H93   1.084       .  S
O95          C98   1.269       .  A
O95        Cd100   2.511       .  S
C96         O105   1.265       .  A
C96         O101   1.268       .  A
O97         C103   1.267       .  A
O97       Cd1476   2.447       .  S
C98         O106   1.262       .  A
C99         O104   1.269       .  A
C99         O102   1.265       .  A
C99         C134   1.487       .  S
Cd100       O107   2.468       .  S
Cd100       O106   2.393       .  S
Cd100       O105   2.439       .  S
Cd100       O101   2.460       .  S
Cd100       O104   2.493       .  S
Cd100       O102   2.432       .  S
Cd100      O1473   2.447       .  S
C103       O1483   1.265       .  A
C103        C116   1.463       .  S
O107       C1479   1.265       .  A
O108        C111   1.269       .  A
O108       Cd113   2.521       .  S
C109        O118   1.268       .  A
C109        O114   1.270       .  A
O110        C116   1.269       .  A
O110       Cd113   2.482       .  S
C111        O119   1.261       .  A
C112        O117   1.270       .  A
C112        O115   1.264       .  A
C112        C162   1.474       .  S
Cd113       O120   2.431       .  S
Cd113       O119   2.404       .  S
Cd113       O118   2.452       .  S
Cd113       O114   2.440       .  S
Cd113       O117   2.478       .  S
Cd113       O115   2.428       .  S
C116        O120   1.264       .  A
C121        C122   1.418       .  A
C121        C126   1.403       .  A
C122        C123   1.402       .  A
C122        N127   1.438       .  S
C123        C124   1.402       .  A
C123        H128   1.084       .  S
C124        C129   1.481       .  S
C124        C125   1.409       .  A
C125        C126   1.403       .  A
C125        N130   1.438       .  S
C126        H131   1.084       .  S
N127        H147   1.044       .  S
N127        H148   1.045       .  S
C129        C132   1.403       .  A
C129        C136   1.415       .  A
N130        H145   1.046       .  S
N130        H146   1.045       .  S
C132        C133   1.410       .  A
C132        H137   1.084       .  S
C133        C134   1.415       .  A
C133        N138   1.437       .  S
C134        C135   1.406       .  A
C135        C136   1.397       .  A
C135        H139   1.084       .  S
C136        N140   1.440       .  S
N138        H141   1.046       .  S
N138        H142   1.046       .  S
N140        H143   1.046       .  S
N140        H144   1.042       .  S
C149        C150   1.407       .  A
C149        C154   1.401       .  A
C150        C151   1.403       .  A
C150        N155   1.437       .  S
C151        C152   1.405       .  A
C151        H156   1.083       .  S
C152        C157   1.490       .  S
C152        C153   1.416       .  A
C153        C154   1.407       .  A
C153        N158   1.438       .  S
C154        H159   1.083       .  S
N155        H175   1.045       .  S
N155        H176   1.046       .  S
C157        C160   1.404       .  A
C157        C164   1.413       .  A
N158        H173   1.046       .  S
N158        H174   1.043       .  S
C160        C161   1.407       .  A
C160        H165   1.083       .  S
C161        C162   1.411       .  A
C161        N166   1.437       .  S
C162        C163   1.399       .  A
C163        C164   1.401       .  A
C163        H167   1.084       .  S
C164        N168   1.431       .  S
N166        H169   1.046       .  S
N166        H170   1.046       .  S
N168        H171   1.046       .  S
N168        H172   1.045       .  S
C177        C178   1.412       .  A
C177        C182   1.403       .  A
C178        C179   1.409       .  A
C178        N183   1.437       .  S
C179        C180   1.402       .  A
C179        H184   1.083       .  S
C180        C185   1.475       .  S
C180        C181   1.406       .  A
C181        C182   1.397       .  A
C181        N186   1.437       .  S
C182        H187   1.084       .  S
N183        H203   1.046       .  S
N183        H204   1.046       .  S
C185        C188   1.403       .  A
C185        C192   1.415       .  A
N186        H201   1.046       .  S
N186        H202   1.045       .  S
C188        C189   1.403       .  A
C188        H193   1.084       .  S
C189        C190   1.406       .  A
C189        N194   1.437       .  S
C190        C191   1.401       .  A
C191        C192   1.399       .  A
C191        H195   1.084       .  S
C192        N196   1.438       .  S
N194        H197   1.046       .  S
N194        H198   1.045       .  S
N196        H199   1.044       .  S
N196        H200   1.043       .  S
C205        C206   1.408       .  A
C205        C210   1.401       .  A
C206        C207   1.401       .  A
C206        N211   1.437       .  S
C207        C208   1.402       .  A
C207        H212   1.083       .  S
C208        C213   1.482       .  S
C208        C209   1.411       .  A
C209        C210   1.405       .  A
C209        N214   1.437       .  S
C210        H215   1.084       .  S
N211        H231   1.046       .  S
N211        H232   1.045       .  S
C213        C216   1.403       .  A
C213        C220   1.412       .  A
N214        H229   1.046       .  S
N214        H230   1.046       .  S
C216        C217   1.405       .  A
C216        H221   1.084       .  S
C217        C218   1.412       .  A
C217        N222   1.438       .  S
C218        C219   1.402       .  A
C219        C220   1.403       .  A
C219        H223   1.084       .  S
C220        N224   1.438       .  S
N222        H225   1.046       .  S
N222        H226   1.046       .  S
N224        H227   1.046       .  S
N224        H228   1.046       .  S
C233        C234   1.412   1_554  A
C233        C238   1.406       .  A
C234        C579   1.407       .  A
C234        N583   1.438   1_455  S
C235        C578   1.405       .  A
C235        C580   1.401       .  A
C235        H240   1.084       .  S
C236        C585   1.481       .  S
C236        C237   1.408       .  A
C236        C579   1.402   1_554  A
C237        C238   1.406       .  A
C237        N242   1.437       .  S
C238        H931   1.083   1_545  S
N239        C578   1.438   1_655  S
N239       H1635   1.045       .  S
N239       H1636   1.046       .  S
C241        C580   1.479       .  S
C241        C248   1.406       .  A
C241        C588   1.403       .  A
N242        H258   1.045       .  S
N242        H945   1.046   1_545  S
H243        C926   1.083       .  S
C244        C245   1.413       .  A
C244        C585   1.404       .  A
C244        H249   1.083       .  S
C245        C590   1.414   1_554  A
C245        N250   1.437       .  S
C246        C247   1.407       .  A
C246        C589   1.415       .  A
C247        C248   1.399       .  A
C247        H251   1.083       .  S
C248        N252   1.439       .  S
N250        H253   1.046       .  S
N250        H254   1.046       .  S
N252        H255   1.045       .  S
N252        H256   1.045       .  S
H257        N930   1.046       .  S
H259       N1615   1.045       .  S
H260       N1615   1.046       .  S
C261       C1407   1.481   1_554  S
C261        C262   1.410   1_554  A
C261        C266   1.402       .  A
C262        C263   1.406       .  A
C262        N267   1.438       .  S
C263        C264   1.401   1_556  A
C263        H268   1.084       .  S
C264        C269   1.474       .  S
C264        C265   1.410       .  A
C265        C266   1.401       .  A
C265        N270   1.439       .  S
C266        H959   1.084   1_545  S
N267        H287   1.046       .  S
N267        H288   1.046       .  S
C269        C272   1.400       .  A
C269        C276   1.408       .  A
N270        H286   1.044       .  S
N270        H973   1.046   1_545  S
H271        C954   1.083       .  S
C272        C273   1.405       .  A
C272        H277   1.084   1_554  S
C273        C274   1.414       .  A
C273        N622   1.438   1_554  S
C274        C275   1.404       .  A
C275        C276   1.404       .  A
C275        H279   1.084       .  S
C276        N280   1.439       .  S
N278        C617   1.438       .  S
N278        H281   1.046       .  S
N278        H282   1.045       .  S
N280        H283   1.046       .  S
N280        H284   1.044       .  S
H285        N958   1.046       .  S
C289        C290   1.415       .  A
C289        C294   1.405       .  A
C290        C291   1.392       .  A
C290        N295   1.433       .  S
C291        C292   1.400   1_554  A
C291        H296   1.084       .  S
C292        C297   1.480       .  S
C292        C293   1.410       .  A
C293        C294   1.409   1_556  A
C293        N298   1.437       .  S
C294        H299   1.084       .  S
N295        H315   1.045       .  S
N295        H316   1.044       .  S
C297        C300   1.401   1_556  A
C297        C304   1.410       .  A
N298        H313   1.046       .  S
N298        H314   1.046       .  S
C300        C301   1.403   1_554  A
C300        H305   1.084       .  S
C301        C302   1.411       .  A
C301       N1682   1.438   1_556  S
C302       C1406   1.485       .  S
C302        C303   1.404       .  A
C303        C304   1.404       .  A
C303        H651   1.084       .  S
C304        N652   1.437       .  S
N306       C1677   1.438   1_554  S
N306        H309   1.046       .  S
N306        H310   1.045       .  S
H307        C647   1.084       .  S
N308        C648   1.437       .  S
N308        H311   1.046       .  S
N308        H312   1.045       .  S
C317        C318   1.413   1_455  A
C317        C322   1.403   1_556  A
C318        C663   1.396   1_655  A
C318       N1355   1.438       .  S
C319        C662   1.396   1_455  A
C319        C664   1.402       .  A
C319        H324   1.084       .  S
C320        C669   1.476       .  S
C320        C321   1.407   1_556  A
C320        C663   1.403       .  A
C321        C322   1.403       .  A
C321        N326   1.437       .  S
C322        H327   1.084       .  S
N323       C1350   1.438       .  S
N323        H343   1.043       .  S
N323        H344   1.045   1_565  S
C325        C664   1.474       .  S
C325        C332   1.406       .  A
C325        C672   1.403       .  A
N326        H341   1.046       .  S
N326        H342   1.046       .  S
C328        C329   1.405       .  A
C328        C669   1.403   1_554  A
C328        H333   1.084       .  S
C329        C674   1.412   1_554  A
C329        N334   1.438       .  S
C330        C331   1.404       .  A
C330        C673   1.411       .  A
C331        C332   1.400       .  A
C331        H335   1.084       .  S
C332        N336   1.438       .  S
N334        H337   1.046       .  S
N334        H338   1.046       .  S
N336        H339   1.046       .  S
N336        H340   1.046       .  S
O345        C348   1.270       .  A
O345       Cd350   2.446       .  S
C346        O355   1.261       .  A
C346        O351   1.269       .  A
C346       C1068   1.464       .  S
O347        C353   1.269       .  A
O347       Cd350   2.479       .  S
C348        O356   1.266       .  A
C348        C408   1.459       .  S
C349        O354   1.268       .  A
C349        O352   1.265   1_554  A
C349        C362   1.461       .  S
Cd350       O357   2.408       .  S
Cd350       O356   2.428       .  S
Cd350       O355   2.395       .  S
Cd350       O351   2.521       .  S
Cd350       O354   2.462   1_556  S
Cd350       O352   2.433       .  S
C353        O357   1.264       .  A
C353        C674   1.473       .  S
O358        C361   1.266       .  A
O358       Cd363   2.455       .  S
C359        O368   1.262       .  A
C359        O364   1.268       .  A
C359       C1081   1.464       .  S
O360        C366   1.266       .  A
O360       Cd363   2.486       .  S
C361        O369   1.264       .  A
C361        C421   1.462       .  S
C362        O367   1.265       .  A
Cd363       O370   2.424       .  S
Cd363       O369   2.456       .  S
Cd363       O368   2.405       .  S
Cd363       O364   2.515       .  S
Cd363       O365   2.461       .  S
C366        O370   1.263       .  A
C366        C633   1.475       .  S
C371        C577   1.490   1_655  S
C371       C1060   1.417   1_545  A
C371        C376   1.400       .  A
C372        C661   1.473   1_655  S
C372       C1059   1.417       .  A
C372        C373   1.398       .  A
C373        C374   1.398       .  A
C373        H378   1.084       .  S
C374       C2022   1.485       .  S
C374       C1063   1.418       .  A
C375       C1981   1.481       .  S
C375       C1062   1.418   1_545  A
C375        C376   1.402       .  A
C376        H377   1.084       .  S
O379        C382   1.267       .  A
O379       Cd384   2.445       .  S
C380        O389   1.263       .  A
C380        O385   1.269       .  A
C380       C1034   1.464   1_545  S
O381        C387   1.268       .  A
O381       Cd384   2.473   1_554  S
C382        O390   1.267       .  A
C382        C440   1.462       .  S
C383        O388   1.271   1_556  A
C383        O386   1.264       .  A
C383        C590   1.485       .  S
Cd384       O391   2.452       .  S
Cd384       O390   2.454       .  S
Cd384       O389   2.396       .  S
Cd384       O385   2.513       .  S
Cd384       O388   2.515   1_556  S
Cd384       O386   2.408       .  S
C387        O391   1.264   1_554  A
C387        C400   1.465       .  S
O392        C395   1.269       .  A
O392       Cd397   2.469       .  S
C393        O402   1.260       .  A
C393        O398   1.268       .  A
C393       C1047   1.464   1_545  S
O394        C400   1.268       .  A
C395        O403   1.266       .  A
C395        C453   1.465       .  S
C396        O401   1.266       .  A
C396        O399   1.264       .  A
C396        C618   1.476       .  S
Cd397       O404   2.460       .  S
Cd397       O403   2.439       .  S
Cd397       O402   2.400       .  S
Cd397       O398   2.528       .  S
Cd397       O401   2.473       .  S
Cd397       O399   2.444       .  S
O405        C408   1.268       .  A
O405       Cd410   2.441       .  S
C406        O415   1.261       .  A
C406        O411   1.267       .  A
C406        C442   1.463       .  S
O407       C1789   1.266       .  A
O407       Cd410   2.439       .  S
C408        O416   1.265       .  A
C409        O414   1.267       .  A
C409        O412   1.264       .  A
C409        C562   1.476       .  S
Cd410       O417   2.462       .  S
Cd410       O416   2.434       .  S
Cd410       O415   2.404       .  S
Cd410       O411   2.521       .  S
Cd410       O414   2.468       .  S
Cd410       O412   2.445       .  S
C413       O1783   1.266       .  A
C413       O1793   1.265       .  A
C413        C426   1.460       .  S
O417       C1789   1.265       .  A
O418        C421   1.268       .  A
O418       Cd423   2.456       .  S
C419        O428   1.263       .  A
C419        O424   1.270       .  A
C419        C455   1.465       .  S
O420        C426   1.268       .  A
O420       Cd423   2.467       .  S
C421        O429   1.265       .  A
C422        O427   1.270       .  A
C422        O425   1.265       .  A
C422        C521   1.476       .  S
Cd423       O430   2.421       .  S
Cd423       O429   2.439       .  S
Cd423       O428   2.395       .  S
Cd423       O424   2.509       .  S
Cd423       O427   2.483       .  S
Cd423       O425   2.397       .  S
C426        O430   1.264       .  A
C431        C465   1.486       .  S
C431        C432   1.418       .  A
C431        C436   1.403       .  A
C432        C549   1.479       .  S
C432        C433   1.399       .  A
C433        C434   1.398       .  A
C433        H438   1.084       .  S
C434        C534   1.476       .  S
C434        C435   1.413       .  A
C435        C493   1.480       .  S
C435        C436   1.400       .  A
C436        H437   1.084       .  S
O439        C442   1.269       .  A
O439       Cd444   2.511       .  S
C440        O449   1.266       .  A
C440        O445   1.268       .  A
O441        C447   1.267       .  A
O441      Cd1820   2.448       .  S
C442        O450   1.262       .  A
C443        O448   1.269       .  A
C443        O446   1.265       .  A
C443        C478   1.487       .  S
Cd444      O1817   2.448       .  S
Cd444       O451   2.466       .  S
Cd444       O450   2.392       .  S
Cd444       O449   2.440       .  S
Cd444       O445   2.459       .  S
Cd444       O448   2.492       .  S
Cd444       O446   2.434       .  S
C447       O1827   1.265       .  A
C447        C460   1.463       .  S
O451       C1823   1.265       .  A
O452        C455   1.269       .  A
O452       Cd457   2.521       .  S
C453        O462   1.268       .  A
C453        O458   1.270       .  A
O454        C460   1.269       .  A
O454       Cd457   2.480       .  S
C455        O463   1.261       .  A
C456        O461   1.270       .  A
C456        O459   1.264       .  A
C456        C506   1.474       .  S
Cd457       O464   2.431       .  S
Cd457       O463   2.403       .  S
Cd457       O462   2.451       .  S
Cd457       O458   2.442       .  S
Cd457       O461   2.478       .  S
Cd457       O459   2.429       .  S
C460        O464   1.264       .  A
C465        C466   1.418       .  A
C465        C470   1.403       .  A
C466        C467   1.402       .  A
C466        N471   1.438       .  S
C467        C468   1.402       .  A
C467        H472   1.084       .  S
C468        C473   1.481       .  S
C468        C469   1.409       .  A
C469        C470   1.403       .  A
C469        N474   1.438       .  S
C470        H475   1.084       .  S
N471        H491   1.044       .  S
N471        H492   1.045       .  S
C473        C476   1.403       .  A
C473        C480   1.415       .  A
N474        H489   1.046       .  S
N474        H490   1.045       .  S
C476        C477   1.410       .  A
C476        H481   1.084       .  S
C477        C478   1.415       .  A
C477        N482   1.437       .  S
C478        C479   1.406       .  A
C479        C480   1.398       .  A
C479        H483   1.084       .  S
C480        N484   1.440       .  S
N482        H485   1.046       .  S
N482        H486   1.046       .  S
N484        H487   1.046       .  S
N484        H488   1.042       .  S
C493        C494   1.407       .  A
C493        C498   1.401       .  A
C494        C495   1.403       .  A
C494        N499   1.437       .  S
C495        C496   1.405       .  A
C495        H500   1.083       .  S
C496        C501   1.490       .  S
C496        C497   1.416       .  A
C497        C498   1.407       .  A
C497        N502   1.438       .  S
C498        H503   1.083       .  S
N499        H519   1.045       .  S
N499        H520   1.046       .  S
C501        C504   1.404       .  A
C501        C508   1.413       .  A
N502        H517   1.046       .  S
N502        H518   1.043       .  S
C504        C505   1.407       .  A
C504        H509   1.083       .  S
C505        C506   1.411       .  A
C505        N510   1.437       .  S
C506        C507   1.399       .  A
C507        C508   1.401       .  A
C507        H511   1.084       .  S
C508        N512   1.431       .  S
N510        H513   1.046       .  S
N510        H514   1.046       .  S
N512        H515   1.046       .  S
N512        H516   1.045       .  S
C521        C522   1.412       .  A
C521        C526   1.403       .  A
C522        C523   1.409       .  A
C522        N527   1.437       .  S
C523        C524   1.403       .  A
C523        H528   1.083       .  S
C524        C529   1.475       .  S
C524        C525   1.406       .  A
C525        C526   1.397       .  A
C525        N530   1.437       .  S
C526        H531   1.084       .  S
N527        H547   1.046       .  S
N527        H548   1.046       .  S
C529        C532   1.403       .  A
C529        C536   1.415       .  A
N530        H545   1.046       .  S
N530        H546   1.045       .  S
C532        C533   1.403       .  A
C532        H537   1.084       .  S
C533        C534   1.406       .  A
C533        N538   1.437       .  S
C534        C535   1.401       .  A
C535        C536   1.399       .  A
C535        H539   1.084       .  S
C536        N540   1.438       .  S
N538        H541   1.046       .  S
N538        H542   1.045       .  S
N540        H543   1.044       .  S
N540        H544   1.043       .  S
C549        C550   1.408       .  A
C549        C554   1.401       .  A
C550        C551   1.401       .  A
C550        N555   1.437       .  S
C551        C552   1.402       .  A
C551        H556   1.083       .  S
C552        C557   1.482       .  S
C552        C553   1.411       .  A
C553        C554   1.405       .  A
C553        N558   1.437       .  S
C554        H559   1.084       .  S
N555        H575   1.046       .  S
N555        H576   1.045       .  S
C557        C560   1.403       .  A
C557        C564   1.412       .  A
N558        H573   1.046       .  S
N558        H574   1.046       .  S
C560        C561   1.405       .  A
C560        H565   1.084       .  S
C561        C562   1.412       .  A
C561        N566   1.438       .  S
C562        C563   1.402       .  A
C563        C564   1.403       .  A
C563        H567   1.084       .  S
C564        N568   1.438       .  S
N566        H569   1.046       .  S
N566        H570   1.046       .  S
N568        H571   1.046       .  S
N568        H572   1.046       .  S
C577        C578   1.412       .  A
C577        C582   1.406       .  A
C579        H584   1.084       .  S
C580        C581   1.407       .  A
C581        C582   1.406       .  A
C581        N586   1.437       .  S
C582       H1275   1.083   1_545  S
N583       H1979   1.045       .  S
N583       H1980   1.046       .  S
C585        C592   1.406   1_554  A
N586       H1289   1.046   1_545  S
N586        H602   1.045       .  S
H587       C1270   1.083       .  S
C588        C589   1.413       .  A
C588        H593   1.083       .  S
C589        N594   1.437       .  S
C590        C591   1.406       .  A
C591        C592   1.399       .  A
C591        H595   1.084       .  S
C592        N596   1.438       .  S
N594        H597   1.046       .  S
N594        H598   1.046       .  S
N596        H599   1.046       .  S
N596        H600   1.045       .  S
H601       N1274   1.046       .  S
H603       N1959   1.045       .  S
H604       N1959   1.046       .  S
C605       C1751   1.481       .  S
C605        C606   1.411       .  A
C605        C610   1.402       .  A
C606        C607   1.406       .  A
C606        N611   1.438       .  S
C607        C608   1.401       .  A
C607        H612   1.084       .  S
C608        C613   1.474       .  S
C608        C609   1.409       .  A
C609        C610   1.400       .  A
C609        N614   1.439       .  S
C610       H1303   1.083   1_545  S
N611        H631   1.046       .  S
N611        H632   1.046       .  S
C613        C616   1.400       .  A
C613        C620   1.408       .  A
N614       H1317   1.046   1_545  S
N614        H630   1.044       .  S
H615       C1298   1.084       .  S
C616        C617   1.405       .  A
C616        H621   1.084       .  S
C617        C618   1.414       .  A
C618        C619   1.404       .  A
C619        C620   1.404       .  A
C619        H623   1.084       .  S
C620        N624   1.439       .  S
N622        H625   1.046       .  S
N622        H626   1.045       .  S
N624        H627   1.046       .  S
N624        H628   1.044       .  S
H629       N1302   1.046       .  S
C633        C634   1.415       .  A
C633        C638   1.405       .  A
C634        C635   1.392       .  A
C634        N639   1.433       .  S
C635        C636   1.400       .  A
C635        H640   1.084       .  S
C636        C641   1.480       .  S
C636        C637   1.410       .  A
C637        C638   1.409       .  A
C637        N642   1.437       .  S
C638        H643   1.084       .  S
N639        H659   1.045       .  S
N639        H660   1.044       .  S
C641        C644   1.401       .  A
C641        C648   1.410       .  A
N642        H657   1.046       .  S
N642        H658   1.046       .  S
C644        C645   1.403       .  A
C644        H649   1.084       .  S
C645        C646   1.412       .  A
C645       N2026   1.438       .  S
C646       C1750   1.485       .  S
C646        C647   1.404       .  A
C647        C648   1.404       .  A
N650       C2021   1.438       .  S
N650        H653   1.046       .  S
N650        H654   1.045       .  S
N652        H655   1.046       .  S
N652        H656   1.046       .  S
C661        C662   1.413   1_455  A
C661        C666   1.403       .  A
C662       N1011   1.438       .  S
C663        H668   1.084       .  S
C664        C665   1.407       .  A
C665        C666   1.402       .  A
C665        N670   1.437       .  S
C666        H671   1.084       .  S
N667       C1006   1.438       .  S
N667        H687   1.043       .  S
N667        H688   1.045   1_565  S
C669        C676   1.407       .  A
N670        H685   1.046       .  S
N670        H686   1.046       .  S
C672        C673   1.405       .  A
C672        H677   1.084       .  S
C673        N678   1.438       .  S
C674        C675   1.404       .  A
C675        C676   1.401       .  A
C675        H679   1.084       .  S
C676        N680   1.438       .  S
N678        H681   1.046       .  S
N678        H682   1.046       .  S
N680        H683   1.046       .  S
N680        H684   1.046       .  S
O689        C692   1.270       .  A
O689       Cd694   2.446       .  S
C690        O699   1.261       .  A
C690        O695   1.269       .  A
O691        C697   1.269       .  A
O691       Cd694   2.478       .  S
C692        O700   1.266       .  A
C692        C752   1.459       .  S
C693        O698   1.268       .  A
C693        O696   1.265       .  A
C693        C706   1.461       .  S
Cd694       O701   2.408       .  S
Cd694       O700   2.427       .  S
Cd694       O699   2.395       .  S
Cd694       O695   2.520       .  S
Cd694       O698   2.462       .  S
Cd694       O696   2.432       .  S
C697        O701   1.264       .  A
C697       C1018   1.472       .  S
O702        C705   1.266       .  A
O702       Cd707   2.454       .  S
C703        O712   1.262       .  A
C703        O708   1.268       .  A
O704        C710   1.267       .  A
O704       Cd707   2.487       .  S
C705        O713   1.264       .  A
C705        C765   1.462       .  S
C706        O711   1.265       .  A
C706       O1053   1.265       .  A
Cd707       O714   2.425       .  S
Cd707       O713   2.457       .  S
Cd707       O712   2.405       .  S
Cd707       O708   2.515       .  S
Cd707      O1055   2.449       .  S
Cd707       O709   2.463       .  S
O709       C1050   1.265       .  A
C710        O714   1.263       .  A
C710        C977   1.476       .  S
O711      Cd1051   2.447       .  S
C715        C921   1.490   1_656  S
C715        C720   1.401   1_556  A
C716       C1005   1.472   1_655  S
C716        C717   1.398       .  A
C717        C718   1.398       .  A
C717        H722   1.084       .  S
C718       C2366   1.486       .  S
C719       C2325   1.481   1_556  S
C719        C720   1.402   1_556  A
C720        H721   1.084       .  S
O723        C726   1.267       .  A
O723       Cd728   2.442       .  S
C724        O733   1.262       .  A
C724        O729   1.269       .  A
O725        C731   1.268       .  A
O725       Cd728   2.475       .  S
C726        O734   1.267       .  A
C726        C784   1.462       .  S
C727        O732   1.270       .  A
C727        O730   1.264       .  A
C727        C934   1.487       .  S
Cd728       O735   2.450       .  S
Cd728       O734   2.455       .  S
Cd728       O733   2.396       .  S
Cd728       O729   2.515       .  S
Cd728       O732   2.510       .  S
Cd728       O730   2.411       .  S
C731        O735   1.265       .  A
C731        C744   1.466       .  S
O736        C739   1.269       .  A
O736       Cd741   2.470       .  S
C737        O746   1.260       .  A
C737        O742   1.268       .  A
O738        C744   1.268       .  A
O738      Cd1085   2.460       .  S
C739        O747   1.266       .  A
C739        C797   1.465       .  S
C740        O745   1.266       .  A
C740        O743   1.264       .  A
C740        C962   1.476       .  S
Cd741      O1082   2.460       .  S
Cd741       O748   2.461       .  S
Cd741       O747   2.439       .  S
Cd741       O746   2.400       .  S
Cd741       O742   2.528       .  S
Cd741       O745   2.472       .  S
Cd741       O743   2.445       .  S
C744       O1092   1.266       .  A
O748       C1088   1.266       .  A
O749        C752   1.268       .  A
O749       Cd754   2.440       .  S
C750        O759   1.261       .  A
C750        O755   1.267       .  A
C750        C786   1.463       .  S
O751       C2133   1.266       .  A
O751       Cd754   2.439       .  S
C752        O760   1.265       .  A
C753        O758   1.267       .  A
C753        O756   1.264       .  A
C753        C906   1.475       .  S
Cd754       O761   2.461       .  S
Cd754       O760   2.434       .  S
Cd754       O759   2.405       .  S
Cd754       O755   2.519       .  S
Cd754       O758   2.468       .  S
Cd754       O756   2.444       .  S
C757       O2127   1.266       .  A
C757       O2137   1.265       .  A
C757        C770   1.460       .  S
O761       C2133   1.265       .  A
O762        C765   1.268       .  A
O762       Cd767   2.457       .  S
C763        O772   1.263       .  A
C763        O768   1.270       .  A
C763        C799   1.465       .  S
O764        C770   1.268       .  A
O764       Cd767   2.467       .  S
C765        O773   1.265       .  A
C766        O771   1.270       .  A
C766        O769   1.265       .  A
C766        C865   1.476       .  S
Cd767       O774   2.421       .  S
Cd767       O773   2.438       .  S
Cd767       O772   2.396       .  S
Cd767       O768   2.509       .  S
Cd767       O771   2.482       .  S
Cd767       O769   2.396       .  S
C770        O774   1.264       .  A
C775        C809   1.486       .  S
C775        C776   1.418       .  A
C775        C780   1.403       .  A
C776        C893   1.479       .  S
C776        C777   1.399       .  A
C777        C778   1.398       .  A
C777        H782   1.084       .  S
C778        C878   1.476       .  S
C778        C779   1.413       .  A
C779        C837   1.480       .  S
C779        C780   1.400       .  A
C780        H781   1.084       .  S
O783        C786   1.269       .  A
O783       Cd788   2.510       .  S
C784        O793   1.265       .  A
C784        O789   1.268       .  A
O785        C791   1.267       .  A
O785      Cd2164   2.447       .  S
C786        O794   1.262       .  A
C787        O792   1.269       .  A
C787        O790   1.265       .  A
C787        C822   1.487       .  S
Cd788      O2161   2.447       .  S
Cd788       O795   2.467       .  S
Cd788       O794   2.393       .  S
Cd788       O793   2.438       .  S
Cd788       O789   2.461       .  S
Cd788       O792   2.491       .  S
Cd788       O790   2.433       .  S
C791       O2171   1.265       .  A
C791        C804   1.463       .  S
O795       C2167   1.265       .  A
O796        C799   1.269       .  A
O796       Cd801   2.521       .  S
C797        O806   1.268       .  A
C797        O802   1.270       .  A
O798        C804   1.269       .  A
O798       Cd801   2.481       .  S
C799        O807   1.261       .  A
C800        O805   1.270       .  A
C800        O803   1.264       .  A
C800        C850   1.474       .  S
Cd801       O808   2.431       .  S
Cd801       O807   2.404       .  S
Cd801       O806   2.452       .  S
Cd801       O802   2.441       .  S
Cd801       O805   2.479       .  S
Cd801       O803   2.428       .  S
C804        O808   1.264       .  A
C809        C810   1.418       .  A
C809        C814   1.403       .  A
C810        C811   1.402       .  A
C810        N815   1.438       .  S
C811        C812   1.402       .  A
C811        H816   1.084       .  S
C812        C817   1.481       .  S
C812        C813   1.409       .  A
C813        C814   1.404       .  A
C813        N818   1.438       .  S
C814        H819   1.084       .  S
N815        H835   1.044       .  S
N815        H836   1.045       .  S
C817        C820   1.403       .  A
C817        C824   1.415       .  A
N818        H833   1.046       .  S
N818        H834   1.045       .  S
C820        C821   1.410       .  A
C820        H825   1.084       .  S
C821        C822   1.415       .  A
C821        N826   1.437       .  S
C822        C823   1.406       .  A
C823        C824   1.398       .  A
C823        H827   1.084       .  S
C824        N828   1.440       .  S
N826        H829   1.046       .  S
N826        H830   1.046       .  S
N828        H831   1.046       .  S
N828        H832   1.042       .  S
C837        C838   1.407       .  A
C837        C842   1.401       .  A
C838        C839   1.403       .  A
C838        N843   1.437       .  S
C839        C840   1.405       .  A
C839        H844   1.083       .  S
C840        C845   1.490       .  S
C840        C841   1.416       .  A
C841        C842   1.407       .  A
C841        N846   1.438       .  S
C842        H847   1.083       .  S
N843        H863   1.045       .  S
N843        H864   1.046       .  S
C845        C848   1.404       .  A
C845        C852   1.413       .  A
N846        H861   1.046       .  S
N846        H862   1.043       .  S
C848        C849   1.407       .  A
C848        H853   1.083       .  S
C849        C850   1.411       .  A
C849        N854   1.437       .  S
C850        C851   1.399       .  A
C851        C852   1.401       .  A
C851        H855   1.084       .  S
C852        N856   1.431       .  S
N854        H857   1.046       .  S
N854        H858   1.046       .  S
N856        H859   1.046       .  S
N856        H860   1.045       .  S
C865        C866   1.412       .  A
C865        C870   1.403       .  A
C866        C867   1.409       .  A
C866        N871   1.437       .  S
C867        C868   1.403       .  A
C867        H872   1.083       .  S
C868        C873   1.475       .  S
C868        C869   1.406       .  A
C869        C870   1.397       .  A
C869        N874   1.437       .  S
C870        H875   1.084       .  S
N871        H891   1.046       .  S
N871        H892   1.046       .  S
C873        C876   1.403       .  A
C873        C880   1.415       .  A
N874        H889   1.046       .  S
N874        H890   1.045       .  S
C876        C877   1.403       .  A
C876        H881   1.084       .  S
C877        C878   1.406       .  A
C877        N882   1.437       .  S
C878        C879   1.401       .  A
C879        C880   1.399       .  A
C879        H883   1.084       .  S
C880        N884   1.438       .  S
N882        H885   1.046       .  S
N882        H886   1.045       .  S
N884        H887   1.044       .  S
N884        H888   1.043       .  S
C893        C894   1.409       .  A
C893        C898   1.401       .  A
C894        C895   1.401       .  A
C894        N899   1.437       .  S
C895        C896   1.402       .  A
C895        H900   1.083       .  S
C896        C901   1.482       .  S
C896        C897   1.411       .  A
C897        C898   1.405       .  A
C897        N902   1.437       .  S
C898        H903   1.084       .  S
N899        H919   1.046       .  S
N899        H920   1.045       .  S
C901        C904   1.403       .  A
C901        C908   1.412       .  A
N902        H917   1.046       .  S
N902        H918   1.046       .  S
C904        C905   1.405       .  A
C904        H909   1.084       .  S
C905        C906   1.412       .  A
C905        N910   1.438       .  S
C906        C907   1.402       .  A
C907        C908   1.403       .  A
C907        H911   1.084       .  S
C908        N912   1.438       .  S
N910        H913   1.046       .  S
N910        H914   1.046       .  S
N912        H915   1.046       .  S
N912        H916   1.046       .  S
C921        C922   1.412   1_554  A
C921        C926   1.407       .  A
C922       C1267   1.405       .  A
C922       N1271   1.438   1_455  S
C923       C1266   1.405       .  A
C923       C1268   1.401       .  A
C923        H928   1.084       .  S
C924       C1273   1.479       .  S
C924       C1267   1.401   1_554  A
C924        C925   1.407       .  A
C925        C926   1.406       .  A
C925        N930   1.437       .  S
N927       C1266   1.438   1_655  S
N927       H2323   1.045       .  S
N927       H2324   1.046       .  S
C929       C1268   1.479       .  S
C929       C1276   1.403       .  A
C929        C936   1.406       .  A
N930        H946   1.045       .  S
C932       C1273   1.403       .  A
C932        C933   1.412       .  A
C932        H937   1.083       .  S
C933       C1278   1.416   1_554  A
C933        N938   1.437       .  S
C934       C1277   1.415       .  A
C934        C935   1.407       .  A
C935        C936   1.399       .  A
C935        H939   1.083       .  S
C936        N940   1.439       .  S
N938        H941   1.046       .  S
N938        H942   1.046       .  S
N940        H943   1.045       .  S
N940        H944   1.045       .  S
H947       N2303   1.045       .  S
H948       N2303   1.046       .  S
C949       C2095   1.481   1_554  S
C949        C950   1.411   1_554  A
C949        C954   1.402       .  A
C950        C951   1.406       .  A
C950        N955   1.438       .  S
C951        C952   1.401   1_556  A
C951        H956   1.084       .  S
C952        C957   1.474       .  S
C952        C953   1.409       .  A
C953        C954   1.400       .  A
C953        N958   1.439       .  S
N955        H975   1.046       .  S
N955        H976   1.046       .  S
C957        C960   1.400   1_554  A
C957        C964   1.408       .  A
N958        H974   1.044       .  S
C960        C961   1.405   1_556  A
C960        H965   1.084       .  S
C961        C962   1.414       .  A
C961       N1310   1.438   1_554  S
C962        C963   1.404       .  A
C963        C964   1.404       .  A
C963        H967   1.084       .  S
C964        N968   1.439       .  S
N966       C1305   1.438       .  S
N966        H969   1.046       .  S
N966        H970   1.045       .  S
N968        H971   1.046       .  S
N968        H972   1.044       .  S
C977        C978   1.416       .  A
C977        C982   1.405       .  A
C978        C979   1.392       .  A
C978        N983   1.433       .  S
C979        C980   1.400   1_554  A
C979        H984   1.084       .  S
C980        C985   1.480       .  S
C980        C981   1.410       .  A
C981        C982   1.409   1_556  A
C981        N986   1.437       .  S
C982        H987   1.084       .  S
N983       H1003   1.045       .  S
N983       H1004   1.044       .  S
C985        C988   1.401       .  A
C985        C992   1.410       .  A
N986       H1001   1.046       .  S
N986       H1002   1.046       .  S
C988        C989   1.403       .  A
C988        H993   1.084   1_556  S
C989        C990   1.412       .  A
C989       N2370   1.438   1_556  S
C990       C2094   1.486       .  S
C990        C991   1.404       .  A
C991        C992   1.405       .  A
C991       H1339   1.083       .  S
C992       N1340   1.437       .  S
N994       C2365   1.438   1_554  S
N994        H997   1.046       .  S
N994        H998   1.045       .  S
H995       C1335   1.084       .  S
N996       C1336   1.437       .  S
N996        H999   1.046       .  S
N996       H1000   1.045       .  S
C1005      C1006   1.413   1_455  A
C1005      C1010   1.403   1_556  A
C1006      C1351   1.396   1_655  A
C1007      C1350   1.396   1_455  A
C1007      C1352   1.403       .  A
C1007      H1012   1.084       .  S
C1008      C1357   1.474       .  S
C1008      C1351   1.402       .  A
C1008      C1009   1.406   1_556  A
C1009      C1010   1.402       .  A
C1009      N1014   1.437       .  S
C1010      H1015   1.084       .  S
N1011      H1031   1.043       .  S
N1011      H1032   1.045       .  S
C1013      C1352   1.475       .  S
C1013      C1360   1.403       .  A
C1013      C1020   1.406       .  A
N1014      H1029   1.046       .  S
N1014      H1030   1.046       .  S
C1016      C1357   1.402   1_554  A
C1016      C1017   1.405       .  A
C1016      H1021   1.083       .  S
C1017      C1362   1.411   1_554  A
C1017      N1022   1.438       .  S
C1018      C1361   1.411       .  A
C1018      C1019   1.404       .  A
C1019      C1020   1.401       .  A
C1019      H1023   1.084       .  S
C1020      N1024   1.438       .  S
N1022      H1025   1.046       .  S
N1022      H1026   1.046       .  S
N1024      H1027   1.046       .  S
N1024      H1028   1.046       .  S
O1033      C1036   1.270       .  A
O1033     Cd1038   2.446       .  S
C1034      O1043   1.261       .  A
C1034      O1039   1.269       .  A
O1035      C1041   1.269       .  A
O1035     Cd1038   2.480       .  S
C1036      O1044   1.267       .  A
C1036      C1096   1.460       .  S
C1037      O1042   1.268       .  A
C1037      O1040   1.265   1_554  A
C1037      C1050   1.462       .  S
Cd1038     O1045   2.408       .  S
Cd1038     O1044   2.430       .  S
Cd1038     O1043   2.396       .  S
Cd1038     O1039   2.520       .  S
Cd1038     O1042   2.463   1_556  S
Cd1038     O1040   2.432       .  S
C1041      O1045   1.263       .  A
C1041      C1362   1.471       .  S
O1046      C1049   1.266       .  A
O1046     Cd1051   2.454       .  S
C1047      O1056   1.262       .  A
C1047      O1052   1.268       .  A
O1048      C1054   1.266       .  A
O1048     Cd1051   2.485       .  S
C1049      O1057   1.264       .  A
C1049      C1109   1.462       .  S
C1050      O1055   1.265       .  A
Cd1051     O1058   2.425       .  S
Cd1051     O1057   2.456       .  S
Cd1051     O1056   2.404       .  S
Cd1051     O1052   2.517       .  S
Cd1051     O1053   2.462       .  S
C1054      O1058   1.263       .  A
C1054      C1321   1.475       .  S
C1059      C1265   1.491   1_655  S
C1059      C1064   1.401       .  A
C1060      C1349   1.473   1_655  S
C1060      C1061   1.398       .  A
C1061      C1062   1.398       .  A
C1061      H1066   1.084       .  S
C1062      C2710   1.485       .  S
C1063      C2669   1.481       .  S
C1063      C1064   1.402       .  A
C1064      H1065   1.084       .  S
O1067      C1070   1.267       .  A
O1067     Cd1072   2.441       .  S
C1068      O1077   1.262       .  A
C1068      O1073   1.269       .  A
O1069      C1075   1.268       .  A
O1069     Cd1072   2.476   1_554  S
C1070      O1078   1.267       .  A
C1070      C1128   1.462       .  S
C1071      O1076   1.270   1_556  A
C1071      O1074   1.264       .  A
C1071      C1278   1.488       .  S
Cd1072     O1079   2.450       .  S
Cd1072     O1078   2.455       .  S
Cd1072     O1077   2.396       .  S
Cd1072     O1073   2.515       .  S
Cd1072     O1076   2.508   1_556  S
Cd1072     O1074   2.411       .  S
C1075      O1079   1.264   1_554  A
C1075      C1088   1.466       .  S
O1080      C1083   1.269       .  A
O1080     Cd1085   2.469       .  S
C1081      O1090   1.260       .  A
C1081      O1086   1.268       .  A
O1082      C1088   1.268       .  A
C1083      O1091   1.266       .  A
C1083      C1141   1.464       .  S
C1084      O1089   1.266       .  A
C1084      O1087   1.264       .  A
C1084      C1306   1.476       .  S
Cd1085     O1092   2.459       .  S
Cd1085     O1091   2.438       .  S
Cd1085     O1090   2.401       .  S
Cd1085     O1086   2.526       .  S
Cd1085     O1089   2.472       .  S
Cd1085     O1087   2.445       .  S
O1093      C1096   1.268       .  A
O1093     Cd1098   2.442       .  S
C1094      O1103   1.261       .  A
C1094      O1099   1.267       .  A
C1094      C1130   1.463       .  S
O1095      C2477   1.266       .  A
O1095     Cd1098   2.439       .  S
C1096      O1104   1.265       .  A
C1097      O1102   1.267       .  A
C1097      O1100   1.264       .  A
C1097      C1250   1.476       .  S
Cd1098     O1105   2.460       .  S
Cd1098     O1104   2.435       .  S
Cd1098     O1103   2.407       .  S
Cd1098     O1099   2.520       .  S
Cd1098     O1102   2.469       .  S
Cd1098     O1100   2.445       .  S
C1101      O2471   1.266       .  A
C1101      O2481   1.265       .  A
C1101      C1114   1.460       .  S
O1105      C2477   1.265       .  A
O1106      C1109   1.269       .  A
O1106     Cd1111   2.457       .  S
C1107      O1116   1.263       .  A
C1107      O1112   1.270       .  A
C1107      C1143   1.465       .  S
O1108      C1114   1.268       .  A
O1108     Cd1111   2.466       .  S
C1109      O1117   1.265       .  A
C1110      O1115   1.270       .  A
C1110      O1113   1.265       .  A
C1110      C1209   1.476       .  S
Cd1111     O1118   2.421       .  S
Cd1111     O1117   2.438       .  S
Cd1111     O1116   2.396       .  S
Cd1111     O1112   2.509       .  S
Cd1111     O1115   2.482       .  S
Cd1111     O1113   2.396       .  S
C1114      O1118   1.264       .  A
C1119      C1153   1.485       .  S
C1119      C1120   1.418       .  A
C1119      C1124   1.403       .  A
C1120      C1237   1.479       .  S
C1120      C1121   1.399       .  A
C1121      C1122   1.398       .  A
C1121      H1126   1.084       .  S
C1122      C1222   1.476       .  S
C1122      C1123   1.413       .  A
C1123      C1181   1.480       .  S
C1123      C1124   1.400       .  A
C1124      H1125   1.084       .  S
O1127      C1130   1.269       .  A
O1127     Cd1132   2.511       .  S
C1128      O1137   1.265       .  A
C1128      O1133   1.268       .  A
O1129      C1135   1.267       .  A
O1129     Cd2508   2.447       .  S
C1130      O1138   1.262       .  A
C1131      O1136   1.268       .  A
C1131      O1134   1.265       .  A
C1131      C1166   1.487       .  S
Cd1132     O2505   2.447       .  S
Cd1132     O1139   2.467       .  S
Cd1132     O1138   2.395       .  S
Cd1132     O1137   2.439       .  S
Cd1132     O1133   2.462       .  S
Cd1132     O1136   2.492       .  S
Cd1132     O1134   2.433       .  S
C1135      O2515   1.265       .  A
C1135      C1148   1.463       .  S
O1139      C2511   1.265       .  A
O1140      C1143   1.269       .  A
O1140     Cd1145   2.521       .  S
C1141      O1150   1.268       .  A
C1141      O1146   1.270       .  A
O1142      C1148   1.269       .  A
O1142     Cd1145   2.481       .  S
C1143      O1151   1.261       .  A
C1144      O1149   1.270       .  A
C1144      O1147   1.264       .  A
C1144      C1194   1.474       .  S
Cd1145     O1152   2.431       .  S
Cd1145     O1151   2.404       .  S
Cd1145     O1150   2.452       .  S
Cd1145     O1146   2.440       .  S
Cd1145     O1149   2.478       .  S
Cd1145     O1147   2.428       .  S
C1148      O1152   1.264       .  A
C1153      C1154   1.418       .  A
C1153      C1158   1.403       .  A
C1154      C1155   1.402       .  A
C1154      N1159   1.438       .  S
C1155      C1156   1.402       .  A
C1155      H1160   1.084       .  S
C1156      C1161   1.481       .  S
C1156      C1157   1.409       .  A
C1157      C1158   1.403       .  A
C1157      N1162   1.438       .  S
C1158      H1163   1.084       .  S
N1159      H1179   1.044       .  S
N1159      H1180   1.045       .  S
C1161      C1164   1.403       .  A
C1161      C1168   1.416       .  A
N1162      H1177   1.046       .  S
N1162      H1178   1.045       .  S
C1164      C1165   1.410       .  A
C1164      H1169   1.084       .  S
C1165      C1166   1.415       .  A
C1165      N1170   1.437       .  S
C1166      C1167   1.406       .  A
C1167      C1168   1.397       .  A
C1167      H1171   1.084       .  S
C1168      N1172   1.440       .  S
N1170      H1173   1.046       .  S
N1170      H1174   1.046       .  S
N1172      H1175   1.046       .  S
N1172      H1176   1.042       .  S
C1181      C1182   1.407       .  A
C1181      C1186   1.400       .  A
C1182      C1183   1.403       .  A
C1182      N1187   1.437       .  S
C1183      C1184   1.405       .  A
C1183      H1188   1.083       .  S
C1184      C1189   1.490       .  S
C1184      C1185   1.416       .  A
C1185      C1186   1.407       .  A
C1185      N1190   1.438       .  S
C1186      H1191   1.083       .  S
N1187      H1207   1.045       .  S
N1187      H1208   1.046       .  S
C1189      C1192   1.404       .  A
C1189      C1196   1.413       .  A
N1190      H1205   1.046       .  S
N1190      H1206   1.043       .  S
C1192      C1193   1.407       .  A
C1192      H1197   1.083       .  S
C1193      C1194   1.411       .  A
C1193      N1198   1.437       .  S
C1194      C1195   1.399       .  A
C1195      C1196   1.401       .  A
C1195      H1199   1.084       .  S
C1196      N1200   1.431       .  S
N1198      H1201   1.046       .  S
N1198      H1202   1.046       .  S
N1200      H1203   1.046       .  S
N1200      H1204   1.045       .  S
C1209      C1210   1.412       .  A
C1209      C1214   1.403       .  A
C1210      C1211   1.409       .  A
C1210      N1215   1.437       .  S
C1211      C1212   1.403       .  A
C1211      H1216   1.083       .  S
C1212      C1217   1.475       .  S
C1212      C1213   1.406       .  A
C1213      C1214   1.397       .  A
C1213      N1218   1.437       .  S
C1214      H1219   1.084       .  S
N1215      H1235   1.046       .  S
N1215      H1236   1.046       .  S
C1217      C1220   1.403       .  A
C1217      C1224   1.415       .  A
N1218      H1233   1.046       .  S
N1218      H1234   1.045       .  S
C1220      C1221   1.403       .  A
C1220      H1225   1.084       .  S
C1221      C1222   1.406       .  A
C1221      N1226   1.437       .  S
C1222      C1223   1.401       .  A
C1223      C1224   1.399       .  A
C1223      H1227   1.084       .  S
C1224      N1228   1.438       .  S
N1226      H1229   1.046       .  S
N1226      H1230   1.045       .  S
N1228      H1231   1.044       .  S
N1228      H1232   1.043       .  S
C1237      C1238   1.408       .  A
C1237      C1242   1.401       .  A
C1238      C1239   1.401       .  A
C1238      N1243   1.437       .  S
C1239      C1240   1.402       .  A
C1239      H1244   1.083       .  S
C1240      C1245   1.482       .  S
C1240      C1241   1.411       .  A
C1241      C1242   1.405       .  A
C1241      N1246   1.437       .  S
C1242      H1247   1.084       .  S
N1243      H1263   1.046       .  S
N1243      H1264   1.045       .  S
C1245      C1248   1.403       .  A
C1245      C1252   1.412       .  A
N1246      H1261   1.046       .  S
N1246      H1262   1.046       .  S
C1248      C1249   1.405       .  A
C1248      H1253   1.084       .  S
C1249      C1250   1.412       .  A
C1249      N1254   1.438       .  S
C1250      C1251   1.402       .  A
C1251      C1252   1.403       .  A
C1251      H1255   1.084       .  S
C1252      N1256   1.438       .  S
N1254      H1257   1.046       .  S
N1254      H1258   1.046       .  S
N1256      H1259   1.046       .  S
N1256      H1260   1.046       .  S
C1265      C1266   1.412       .  A
C1265      C1270   1.407       .  A
C1267      H1272   1.084       .  S
C1268      C1269   1.407       .  A
C1269      C1270   1.406       .  A
C1269      N1274   1.437       .  S
N1271      H2667   1.045       .  S
N1271      H2668   1.046       .  S
C1273      C1280   1.406   1_554  A
N1274      H1290   1.045       .  S
C1276      C1277   1.413       .  A
C1276      H1281   1.083       .  S
C1277      N1282   1.437       .  S
C1278      C1279   1.407       .  A
C1279      C1280   1.400       .  A
C1279      H1283   1.083       .  S
C1280      N1284   1.439       .  S
N1282      H1285   1.046       .  S
N1282      H1286   1.046       .  S
N1284      H1287   1.045       .  S
N1284      H1288   1.045       .  S
H1291      N2647   1.045       .  S
H1292      N2647   1.046       .  S
C1293      C2439   1.481       .  S
C1293      C1294   1.410       .  A
C1293      C1298   1.402       .  A
C1294      C1295   1.406       .  A
C1294      N1299   1.438       .  S
C1295      C1296   1.401       .  A
C1295      H1300   1.084       .  S
C1296      C1301   1.474       .  S
C1296      C1297   1.409       .  A
C1297      C1298   1.400       .  A
C1297      N1302   1.439       .  S
N1299      H1319   1.046       .  S
N1299      H1320   1.046       .  S
C1301      C1304   1.400       .  A
C1301      C1308   1.408       .  A
N1302      H1318   1.044       .  S
C1304      C1305   1.405       .  A
C1304      H1309   1.084       .  S
C1305      C1306   1.414       .  A
C1306      C1307   1.404       .  A
C1307      C1308   1.404       .  A
C1307      H1311   1.084       .  S
C1308      N1312   1.439       .  S
N1310      H1313   1.046       .  S
N1310      H1314   1.045       .  S
N1312      H1315   1.046       .  S
N1312      H1316   1.044       .  S
C1321      C1322   1.415       .  A
C1321      C1326   1.405       .  A
C1322      C1323   1.392       .  A
C1322      N1327   1.433       .  S
C1323      C1324   1.400       .  A
C1323      H1328   1.084       .  S
C1324      C1329   1.480       .  S
C1324      C1325   1.411       .  A
C1325      C1326   1.409       .  A
C1325      N1330   1.437       .  S
C1326      H1331   1.084       .  S
N1327      H1347   1.045       .  S
N1327      H1348   1.044       .  S
C1329      C1332   1.401       .  A
C1329      C1336   1.410       .  A
N1330      H1345   1.046       .  S
N1330      H1346   1.046       .  S
C1332      C1333   1.403       .  A
C1332      H1337   1.084       .  S
C1333      C1334   1.412       .  A
C1333      N2714   1.438       .  S
C1334      C2438   1.485       .  S
C1334      C1335   1.404       .  A
C1335      C1336   1.405       .  A
N1338      C2709   1.438       .  S
N1338      H1341   1.046       .  S
N1338      H1342   1.045       .  S
N1340      H1343   1.046       .  S
N1340      H1344   1.045       .  S
C1349      C1350   1.413   1_455  A
C1349      C1354   1.403       .  A
C1351      H1356   1.084       .  S
C1352      C1353   1.407       .  A
C1353      C1354   1.403       .  A
C1353      N1358   1.437       .  S
C1354      H1359   1.084       .  S
N1355      H1375   1.043       .  S
N1355      H1376   1.045       .  S
C1357      C1364   1.406       .  A
N1358      H1373   1.046       .  S
N1358      H1374   1.046       .  S
C1360      C1361   1.405       .  A
C1360      H1365   1.084       .  S
C1361      N1366   1.438       .  S
C1362      C1363   1.403       .  A
C1363      C1364   1.401       .  A
C1363      H1367   1.084       .  S
C1364      N1368   1.438       .  S
N1366      H1369   1.046       .  S
N1366      H1370   1.046       .  S
N1368      H1371   1.046       .  S
N1368      H1372   1.046       .  S
O1377      C1380   1.270       .  A
O1377     Cd1382   2.445       .  S
C1378      O1387   1.261       .  A
C1378      O1383   1.269       .  A
C1378      C2100   1.464       .  S
O1379      C1385   1.269       .  A
O1379     Cd1382   2.478       .  S
C1380      O1388   1.266       .  A
C1380      C1440   1.459       .  S
C1381      O1386   1.268       .  A
C1381      O1384   1.265       .  A
C1381      C1394   1.461       .  S
Cd1382     O1389   2.406       .  S
Cd1382     O1388   2.428       .  S
Cd1382     O1387   2.395       .  S
Cd1382     O1383   2.521       .  S
Cd1382     O1386   2.461       .  S
Cd1382     O1384   2.431       .  S
C1385      O1389   1.263       .  A
C1385      C1706   1.472       .  S
O1390      C1393   1.266       .  A
O1390     Cd1395   2.455       .  S
C1391      O1400   1.262       .  A
C1391      O1396   1.268       .  A
C1391      C2113   1.464       .  S
O1392      C1398   1.266       .  A
O1392     Cd1395   2.486       .  S
C1393      O1401   1.264       .  A
C1393      C1453   1.462       .  S
C1394      O1399   1.265       .  A
C1394      O1741   1.265       .  A
Cd1395     O1402   2.425       .  S
Cd1395     O1401   2.458       .  S
Cd1395     O1400   2.404       .  S
Cd1395     O1396   2.517       .  S
Cd1395     O1743   2.448       .  S
Cd1395     O1397   2.462       .  S
O1397      C1738   1.265       .  A
C1398      O1402   1.263       .  A
C1398      C1665   1.475       .  S
O1399     Cd1739   2.447       .  S
C1403      C1609   1.492   1_556  S
C1403      C2092   1.417   1_545  A
C1403      C1408   1.401   1_556  A
C1404      C1693   1.474       .  S
C1404      C2091   1.417       .  A
C1404      C1405   1.398       .  A
C1405      C1406   1.398       .  A
C1405      H1410   1.084       .  S
C1406      C2095   1.418       .  A
C1407      C2094   1.418   1_545  A
C1407      C1408   1.403   1_556  A
C1408      H1409   1.084       .  S
O1411      C1414   1.267       .  A
O1411     Cd1416   2.441       .  S
C1412      O1421   1.262       .  A
C1412      O1417   1.269       .  A
C1412      C2066   1.464   1_545  S
O1413      C1419   1.268       .  A
O1413     Cd1416   2.476       .  S
C1414      O1422   1.267       .  A
C1414      C1472   1.462       .  S
C1415      O1420   1.271       .  A
C1415      O1418   1.264       .  A
C1415      C1622   1.487       .  S
Cd1416     O1423   2.450       .  S
Cd1416     O1422   2.453       .  S
Cd1416     O1421   2.396       .  S
Cd1416     O1417   2.514       .  S
Cd1416     O1420   2.509       .  S
Cd1416     O1418   2.410       .  S
C1419      O1423   1.264       .  A
C1419      C1432   1.466       .  S
O1424      C1427   1.269       .  A
O1424     Cd1429   2.470       .  S
C1425      O1434   1.260       .  A
C1425      O1430   1.268       .  A
C1425      C2079   1.464   1_545  S
O1426      C1432   1.268       .  A
O1426     Cd1773   2.460       .  S
C1427      O1435   1.266       .  A
C1427      C1485   1.464       .  S
C1428      O1433   1.266       .  A
C1428      O1431   1.264       .  A
C1428      C1650   1.476       .  S
Cd1429     O1770   2.461       .  S
Cd1429     O1436   2.457       .  S
Cd1429     O1435   2.438       .  S
Cd1429     O1434   2.401       .  S
Cd1429     O1430   2.527       .  S
Cd1429     O1433   2.473       .  S
Cd1429     O1431   2.446       .  S
C1432      O1780   1.266       .  A
O1436      C1776   1.266       .  A
O1437      C1440   1.268       .  A
O1437     Cd1442   2.442       .  S
C1438      O1447   1.261       .  A
C1438      O1443   1.267       .  A
C1438      C1474   1.463       .  S
O1439     Cd1442   2.439       .  S
C1440      O1448   1.265       .  A
C1441      O1446   1.266       .  A
C1441      O1444   1.264       .  A
C1441      C1594   1.476       .  S
Cd1442     O1449   2.462       .  S
Cd1442     O1448   2.433       .  S
Cd1442     O1447   2.405       .  S
Cd1442     O1443   2.521       .  S
Cd1442     O1446   2.468       .  S
Cd1442     O1444   2.447       .  S
C1445      C1458   1.460   1_455  S
O1450      C1453   1.269       .  A
O1450     Cd1455   2.458       .  S
C1451      O1460   1.263       .  A
C1451      O1456   1.271       .  A
C1451      C1487   1.465       .  S
O1452      C1458   1.268       .  A
O1452     Cd1455   2.468       .  S
C1453      O1461   1.265       .  A
C1454      O1459   1.270       .  A
C1454      O1457   1.265       .  A
C1454      C1553   1.476       .  S
Cd1455     O1462   2.422       .  S
Cd1455     O1461   2.439       .  S
Cd1455     O1460   2.396       .  S
Cd1455     O1456   2.509       .  S
Cd1455     O1459   2.482       .  S
Cd1455     O1457   2.397       .  S
C1458      O1462   1.264       .  A
C1463      C1497   1.485       .  S
C1463      C1464   1.418       .  A
C1463      C1468   1.403       .  A
C1464      C1581   1.479       .  S
C1464      C1465   1.399       .  A
C1465      C1466   1.398       .  A
C1465      H1470   1.084       .  S
C1466      C1566   1.476       .  S
C1466      C1467   1.413       .  A
C1467      C1525   1.480       .  S
C1467      C1468   1.400       .  A
C1468      H1469   1.084       .  S
O1471      C1474   1.269       .  A
O1471     Cd1476   2.511       .  S
C1472      O1481   1.265       .  A
C1472      O1477   1.268       .  A
O1473      C1479   1.267       .  A
C1474      O1482   1.262       .  A
C1475      O1480   1.269       .  A
C1475      O1478   1.265       .  A
C1475      C1510   1.487       .  S
Cd1476     O1483   2.468       .  S
Cd1476     O1482   2.393       .  S
Cd1476     O1481   2.439       .  S
Cd1476     O1477   2.460       .  S
Cd1476     O1480   2.493       .  S
Cd1476     O1478   2.433       .  S
C1479      C1492   1.463   1_455  S
O1484      C1487   1.269       .  A
O1484     Cd1489   2.521       .  S
C1485      O1494   1.268       .  A
C1485      O1490   1.270       .  A
O1486      C1492   1.269       .  A
O1486     Cd1489   2.482       .  S
C1487      O1495   1.261       .  A
C1488      O1493   1.270       .  A
C1488      O1491   1.264       .  A
C1488      C1538   1.474       .  S
Cd1489     O1496   2.431       .  S
Cd1489     O1495   2.404       .  S
Cd1489     O1494   2.452       .  S
Cd1489     O1490   2.440       .  S
Cd1489     O1493   2.478       .  S
Cd1489     O1491   2.428       .  S
C1492      O1496   1.264       .  A
C1497      C1498   1.418       .  A
C1497      C1502   1.403       .  A
C1498      C1499   1.402       .  A
C1498      N1503   1.438       .  S
C1499      C1500   1.402       .  A
C1499      H1504   1.084       .  S
C1500      C1505   1.481       .  S
C1500      C1501   1.409       .  A
C1501      C1502   1.403       .  A
C1501      N1506   1.438       .  S
C1502      H1507   1.084       .  S
N1503      H1523   1.044       .  S
N1503      H1524   1.045       .  S
C1505      C1508   1.403       .  A
C1505      C1512   1.415       .  A
N1506      H1521   1.046       .  S
N1506      H1522   1.045       .  S
C1508      C1509   1.410       .  A
C1508      H1513   1.084       .  S
C1509      C1510   1.415       .  A
C1509      N1514   1.437       .  S
C1510      C1511   1.406       .  A
C1511      C1512   1.397       .  A
C1511      H1515   1.084       .  S
C1512      N1516   1.440       .  S
N1514      H1517   1.046       .  S
N1514      H1518   1.046       .  S
N1516      H1519   1.046       .  S
N1516      H1520   1.042       .  S
C1525      C1526   1.407       .  A
C1525      C1530   1.401       .  A
C1526      C1527   1.403       .  A
C1526      N1531   1.437       .  S
C1527      C1528   1.405       .  A
C1527      H1532   1.083       .  S
C1528      C1533   1.490       .  S
C1528      C1529   1.416       .  A
C1529      C1530   1.407       .  A
C1529      N1534   1.438       .  S
C1530      H1535   1.083       .  S
N1531      H1551   1.045       .  S
N1531      H1552   1.046       .  S
C1533      C1536   1.404       .  A
C1533      C1540   1.413       .  A
N1534      H1549   1.046       .  S
N1534      H1550   1.043       .  S
C1536      C1537   1.407       .  A
C1536      H1541   1.083       .  S
C1537      C1538   1.411       .  A
C1537      N1542   1.437       .  S
C1538      C1539   1.399       .  A
C1539      C1540   1.401       .  A
C1539      H1543   1.084       .  S
C1540      N1544   1.431       .  S
N1542      H1545   1.046       .  S
N1542      H1546   1.046       .  S
N1544      H1547   1.046       .  S
N1544      H1548   1.045       .  S
C1553      C1554   1.412       .  A
C1553      C1558   1.403       .  A
C1554      C1555   1.409       .  A
C1554      N1559   1.437       .  S
C1555      C1556   1.402       .  A
C1555      H1560   1.083       .  S
C1556      C1561   1.475       .  S
C1556      C1557   1.406       .  A
C1557      C1558   1.397       .  A
C1557      N1562   1.437       .  S
C1558      H1563   1.084       .  S
N1559      H1579   1.046       .  S
N1559      H1580   1.046       .  S
C1561      C1564   1.403       .  A
C1561      C1568   1.415       .  A
N1562      H1577   1.046       .  S
N1562      H1578   1.045       .  S
C1564      C1565   1.403       .  A
C1564      H1569   1.084       .  S
C1565      C1566   1.406       .  A
C1565      N1570   1.437       .  S
C1566      C1567   1.401       .  A
C1567      C1568   1.399       .  A
C1567      H1571   1.084       .  S
C1568      N1572   1.438       .  S
N1570      H1573   1.046       .  S
N1570      H1574   1.045       .  S
N1572      H1575   1.044       .  S
N1572      H1576   1.043       .  S
C1581      C1582   1.408       .  A
C1581      C1586   1.401       .  A
C1582      C1583   1.401       .  A
C1582      N1587   1.437       .  S
C1583      C1584   1.402       .  A
C1583      H1588   1.083       .  S
C1584      C1589   1.482       .  S
C1584      C1585   1.411       .  A
C1585      C1586   1.405       .  A
C1585      N1590   1.437       .  S
C1586      H1591   1.084       .  S
N1587      H1607   1.046       .  S
N1587      H1608   1.045       .  S
C1589      C1592   1.403       .  A
C1589      C1596   1.412       .  A
N1590      H1605   1.046       .  S
N1590      H1606   1.046       .  S
C1592      C1593   1.405       .  A
C1592      H1597   1.084       .  S
C1593      C1594   1.412       .  A
C1593      N1598   1.438       .  S
C1594      C1595   1.402       .  A
C1595      C1596   1.403       .  A
C1595      H1599   1.084       .  S
C1596      N1600   1.438       .  S
N1598      H1601   1.046       .  S
N1598      H1602   1.046       .  S
N1600      H1603   1.046       .  S
N1600      H1604   1.046       .  S
C1609      C1610   1.412   1_554  A
C1609      C1614   1.406       .  A
C1610      C1955   1.407       .  A
C1610      N1959   1.438       .  S
C1611      C1954   1.405       .  A
C1611      C1956   1.401       .  A
C1611      H1616   1.084       .  S
C1612      C1961   1.481       .  S
C1612      C1955   1.402   1_554  A
C1612      C1613   1.408       .  A
C1613      C1614   1.406       .  A
C1613      N1618   1.437       .  S
C1614      H2307   1.083   1_545  S
N1615      C1954   1.438       .  S
C1617      C1956   1.479       .  S
C1617      C1964   1.403       .  A
C1617      C1624   1.406       .  A
N1618      H2321   1.046   1_545  S
N1618      H1634   1.045       .  S
H1619      C2302   1.083       .  S
C1620      C1961   1.404       .  A
C1620      C1621   1.413       .  A
C1620      H1625   1.083       .  S
C1621      C1966   1.414   1_554  A
C1621      N1626   1.437       .  S
C1622      C1965   1.415       .  A
C1622      C1623   1.407       .  A
C1623      C1624   1.399       .  A
C1623      H1627   1.083       .  S
C1624      N1628   1.439       .  S
N1626      H1629   1.046       .  S
N1626      H1630   1.046       .  S
N1628      H1631   1.045       .  S
N1628      H1632   1.045       .  S
H1633      N2306   1.046       .  S
C1637      C1638   1.410   1_554  A
C1637      C1642   1.402       .  A
C1638      C1639   1.406       .  A
C1638      N1643   1.438       .  S
C1639      C1640   1.401   1_556  A
C1639      H1644   1.084       .  S
C1640      C1645   1.474       .  S
C1640      C1641   1.410       .  A
C1641      C1642   1.401       .  A
C1641      N1646   1.439       .  S
C1642      H2335   1.084   1_545  S
N1643      H1663   1.046       .  S
N1643      H1664   1.046       .  S
C1645      C1648   1.400       .  A
C1645      C1652   1.408       .  A
N1646      H2349   1.046   1_545  S
N1646      H1662   1.044       .  S
H1647      C2330   1.083       .  S
C1648      C1649   1.405       .  A
C1648      H1653   1.084   1_554  S
C1649      C1650   1.414       .  A
C1649      N1998   1.438   1_554  S
C1650      C1651   1.404       .  A
C1651      C1652   1.404       .  A
C1651      H1655   1.084       .  S
C1652      N1656   1.439       .  S
N1654      C1993   1.438       .  S
N1654      H1657   1.046       .  S
N1654      H1658   1.045       .  S
N1656      H1659   1.046       .  S
N1656      H1660   1.044       .  S
H1661      N2334   1.046       .  S
C1665      C1666   1.415       .  A
C1665      C1670   1.405       .  A
C1666      C1667   1.392       .  A
C1666      N1671   1.433       .  S
C1667      C1668   1.400   1_554  A
C1667      H1672   1.084       .  S
C1668      C1673   1.480       .  S
C1668      C1669   1.410       .  A
C1669      C1670   1.409   1_556  A
C1669      N1674   1.437       .  S
C1670      H1675   1.084       .  S
N1671      H1691   1.045       .  S
N1671      H1692   1.044       .  S
C1673      C1676   1.401   1_556  A
C1673      C1680   1.410       .  A
N1674      H1689   1.046       .  S
N1674      H1690   1.046       .  S
C1676      C1677   1.403   1_554  A
C1676      H1681   1.084       .  S
C1677      C1678   1.411       .  A
C1678      C1679   1.404       .  A
C1679      C1680   1.404       .  A
C1679      H2027   1.084       .  S
C1680      N2028   1.437       .  S
N1682      H1685   1.046       .  S
N1682      H1686   1.045       .  S
H1683      C2023   1.084       .  S
N1684      C2024   1.437       .  S
N1684      H1687   1.046       .  S
N1684      H1688   1.045       .  S
C1693      C1694   1.413       .  A
C1693      C1698   1.403   1_556  A
C1694      C2039   1.396       .  A
C1694      N2731   1.438       .  S
C1695      C2038   1.396       .  A
C1695      C2040   1.402       .  A
C1695      H1700   1.084       .  S
C1696      C2045   1.476       .  S
C1696      C2039   1.403       .  A
C1696      C1697   1.407   1_556  A
C1697      C1698   1.403       .  A
C1697      N1702   1.437       .  S
C1698      H1703   1.084       .  S
N1699      C2726   1.438       .  S
N1699      H1719   1.043       .  S
N1699      H1720   1.045   1_565  S
C1701      C2040   1.474       .  S
C1701      C2048   1.403       .  A
C1701      C1708   1.406       .  A
N1702      H1717   1.046       .  S
N1702      H1718   1.046       .  S
C1704      C2045   1.403   1_554  A
C1704      C1705   1.405       .  A
C1704      H1709   1.084       .  S
C1705      C2050   1.412   1_554  A
C1705      N1710   1.438       .  S
C1706      C2049   1.411       .  A
C1706      C1707   1.404       .  A
C1707      C1708   1.400       .  A
C1707      H1711   1.084       .  S
C1708      N1712   1.438       .  S
N1710      H1713   1.046       .  S
N1710      H1714   1.046       .  S
N1712      H1715   1.046       .  S
N1712      H1716   1.046       .  S
O1721      C1724   1.270       .  A
O1721     Cd1726   2.446       .  S
C1722      O1731   1.261       .  A
C1722      O1727   1.269       .  A
C1722      C2444   1.464       .  S
O1723      C1729   1.269       .  A
O1723     Cd1726   2.479       .  S
C1724      O1732   1.266       .  A
C1724      C1784   1.459       .  S
C1725      O1730   1.268       .  A
C1725      O1728   1.265   1_554  A
C1725      C1738   1.461       .  S
Cd1726     O1733   2.408       .  S
Cd1726     O1732   2.428       .  S
Cd1726     O1731   2.395       .  S
Cd1726     O1727   2.521       .  S
Cd1726     O1730   2.462   1_556  S
Cd1726     O1728   2.433       .  S
C1729      O1733   1.264       .  A
C1729      C2050   1.473       .  S
O1734      C1737   1.266       .  A
O1734     Cd1739   2.455       .  S
C1735      O1744   1.262       .  A
C1735      O1740   1.268       .  A
C1735      C2457   1.464       .  S
O1736      C1742   1.266       .  A
O1736     Cd1739   2.486       .  S
C1737      O1745   1.264       .  A
C1737      C1797   1.462       .  S
C1738      O1743   1.265       .  A
Cd1739     O1746   2.424       .  S
Cd1739     O1745   2.456       .  S
Cd1739     O1744   2.405       .  S
Cd1739     O1740   2.515       .  S
Cd1739     O1741   2.461       .  S
C1742      O1746   1.263       .  A
C1742      C2009   1.475       .  S
C1747      C1953   1.490       .  S
C1747      C2436   1.417   1_545  A
C1747      C1752   1.400       .  A
C1748      C2037   1.473       .  S
C1748      C2435   1.417       .  A
C1748      C1749   1.398       .  A
C1749      C1750   1.398       .  A
C1749      H1754   1.084       .  S
C1750      C2439   1.418       .  A
C1751      C2438   1.418   1_545  A
C1751      C1752   1.402       .  A
C1752      H1753   1.084       .  S
O1755      C1758   1.267       .  A
O1755     Cd1760   2.445       .  S
C1756      O1765   1.263       .  A
C1756      O1761   1.269       .  A
C1756      C2410   1.464   1_545  S
O1757      C1763   1.268       .  A
O1757     Cd1760   2.473   1_554  S
C1758      O1766   1.267       .  A
C1758      C1816   1.462       .  S
C1759      O1764   1.271   1_556  A
C1759      O1762   1.264       .  A
C1759      C1966   1.485       .  S
Cd1760     O1767   2.452       .  S
Cd1760     O1766   2.454       .  S
Cd1760     O1765   2.396       .  S
Cd1760     O1761   2.513       .  S
Cd1760     O1764   2.515   1_556  S
Cd1760     O1762   2.408       .  S
C1763      O1767   1.264   1_554  A
C1763      C1776   1.465       .  S
O1768      C1771   1.269       .  A
O1768     Cd1773   2.469       .  S
C1769      O1778   1.260       .  A
C1769      O1774   1.268       .  A
C1769      C2423   1.464   1_545  S
O1770      C1776   1.268       .  A
C1771      O1779   1.266       .  A
C1771      C1829   1.465       .  S
C1772      O1777   1.266       .  A
C1772      O1775   1.264       .  A
C1772      C1994   1.476       .  S
Cd1773     O1780   2.460       .  S
Cd1773     O1779   2.439       .  S
Cd1773     O1778   2.400       .  S
Cd1773     O1774   2.528       .  S
Cd1773     O1777   2.473       .  S
Cd1773     O1775   2.444       .  S
O1781      C1784   1.268       .  A
O1781     Cd1786   2.441       .  S
C1782      O1791   1.261       .  A
C1782      O1787   1.267       .  A
C1782      C1818   1.463       .  S
O1783     Cd1786   2.439       .  S
C1784      O1792   1.265       .  A
C1785      O1790   1.267       .  A
C1785      O1788   1.264       .  A
C1785      C1938   1.476       .  S
Cd1786     O1793   2.462       .  S
Cd1786     O1792   2.434       .  S
Cd1786     O1791   2.404       .  S
Cd1786     O1787   2.521       .  S
Cd1786     O1790   2.468       .  S
Cd1786     O1788   2.445       .  S
C1789      C1802   1.460   1_455  S
O1794      C1797   1.268       .  A
O1794     Cd1799   2.456       .  S
C1795      O1804   1.263       .  A
C1795      O1800   1.270       .  A
C1795      C1831   1.465       .  S
O1796      C1802   1.268       .  A
O1796     Cd1799   2.467       .  S
C1797      O1805   1.265       .  A
C1798      O1803   1.270       .  A
C1798      O1801   1.265       .  A
C1798      C1897   1.476       .  S
Cd1799     O1806   2.421       .  S
Cd1799     O1805   2.439       .  S
Cd1799     O1804   2.395       .  S
Cd1799     O1800   2.509       .  S
Cd1799     O1803   2.483       .  S
Cd1799     O1801   2.397       .  S
C1802      O1806   1.264       .  A
C1807      C1841   1.486       .  S
C1807      C1808   1.418       .  A
C1807      C1812   1.403       .  A
C1808      C1925   1.479       .  S
C1808      C1809   1.399       .  A
C1809      C1810   1.398       .  A
C1809      H1814   1.084       .  S
C1810      C1910   1.476       .  S
C1810      C1811   1.413       .  A
C1811      C1869   1.480       .  S
C1811      C1812   1.400       .  A
C1812      H1813   1.084       .  S
O1815      C1818   1.269       .  A
O1815     Cd1820   2.511       .  S
C1816      O1825   1.266       .  A
C1816      O1821   1.268       .  A
O1817      C1823   1.267       .  A
C1818      O1826   1.262       .  A
C1819      O1824   1.269       .  A
C1819      O1822   1.265       .  A
C1819      C1854   1.487       .  S
Cd1820     O1827   2.466       .  S
Cd1820     O1826   2.392       .  S
Cd1820     O1825   2.440       .  S
Cd1820     O1821   2.459       .  S
Cd1820     O1824   2.492       .  S
Cd1820     O1822   2.434       .  S
C1823      C1836   1.463   1_455  S
O1828      C1831   1.269       .  A
O1828     Cd1833   2.521       .  S
C1829      O1838   1.268       .  A
C1829      O1834   1.270       .  A
O1830      C1836   1.269       .  A
O1830     Cd1833   2.480       .  S
C1831      O1839   1.261       .  A
C1832      O1837   1.270       .  A
C1832      O1835   1.264       .  A
C1832      C1882   1.474       .  S
Cd1833     O1840   2.431       .  S
Cd1833     O1839   2.403       .  S
Cd1833     O1838   2.451       .  S
Cd1833     O1834   2.442       .  S
Cd1833     O1837   2.478       .  S
Cd1833     O1835   2.429       .  S
C1836      O1840   1.264       .  A
C1841      C1842   1.418       .  A
C1841      C1846   1.403       .  A
C1842      C1843   1.402       .  A
C1842      N1847   1.438       .  S
C1843      C1844   1.402       .  A
C1843      H1848   1.084       .  S
C1844      C1849   1.481       .  S
C1844      C1845   1.409       .  A
C1845      C1846   1.403       .  A
C1845      N1850   1.438       .  S
C1846      H1851   1.084       .  S
N1847      H1867   1.044       .  S
N1847      H1868   1.045       .  S
C1849      C1852   1.403       .  A
C1849      C1856   1.415       .  A
N1850      H1865   1.046       .  S
N1850      H1866   1.045       .  S
C1852      C1853   1.410       .  A
C1852      H1857   1.084       .  S
C1853      C1854   1.415       .  A
C1853      N1858   1.437       .  S
C1854      C1855   1.406       .  A
C1855      C1856   1.398       .  A
C1855      H1859   1.084       .  S
C1856      N1860   1.440       .  S
N1858      H1861   1.046       .  S
N1858      H1862   1.046       .  S
N1860      H1863   1.046       .  S
N1860      H1864   1.042       .  S
C1869      C1870   1.407       .  A
C1869      C1874   1.401       .  A
C1870      C1871   1.403       .  A
C1870      N1875   1.437       .  S
C1871      C1872   1.405       .  A
C1871      H1876   1.083       .  S
C1872      C1877   1.490       .  S
C1872      C1873   1.416       .  A
C1873      C1874   1.407       .  A
C1873      N1878   1.438       .  S
C1874      H1879   1.083       .  S
N1875      H1895   1.045       .  S
N1875      H1896   1.046       .  S
C1877      C1880   1.404       .  A
C1877      C1884   1.413       .  A
N1878      H1893   1.046       .  S
N1878      H1894   1.043       .  S
C1880      C1881   1.407       .  A
C1880      H1885   1.083       .  S
C1881      C1882   1.411       .  A
C1881      N1886   1.437       .  S
C1882      C1883   1.399       .  A
C1883      C1884   1.401       .  A
C1883      H1887   1.084       .  S
C1884      N1888   1.431       .  S
N1886      H1889   1.046       .  S
N1886      H1890   1.046       .  S
N1888      H1891   1.046       .  S
N1888      H1892   1.045       .  S
C1897      C1898   1.412       .  A
C1897      C1902   1.403       .  A
C1898      C1899   1.409       .  A
C1898      N1903   1.437       .  S
C1899      C1900   1.403       .  A
C1899      H1904   1.083       .  S
C1900      C1905   1.475       .  S
C1900      C1901   1.406       .  A
C1901      C1902   1.397       .  A
C1901      N1906   1.437       .  S
C1902      H1907   1.084       .  S
N1903      H1923   1.046       .  S
N1903      H1924   1.046       .  S
C1905      C1908   1.403       .  A
C1905      C1912   1.415       .  A
N1906      H1921   1.046       .  S
N1906      H1922   1.045       .  S
C1908      C1909   1.403       .  A
C1908      H1913   1.084       .  S
C1909      C1910   1.406       .  A
C1909      N1914   1.437       .  S
C1910      C1911   1.401       .  A
C1911      C1912   1.399       .  A
C1911      H1915   1.084       .  S
C1912      N1916   1.438       .  S
N1914      H1917   1.046       .  S
N1914      H1918   1.045       .  S
N1916      H1919   1.044       .  S
N1916      H1920   1.043       .  S
C1925      C1926   1.408       .  A
C1925      C1930   1.401       .  A
C1926      C1927   1.401       .  A
C1926      N1931   1.437       .  S
C1927      C1928   1.402       .  A
C1927      H1932   1.083       .  S
C1928      C1933   1.482       .  S
C1928      C1929   1.411       .  A
C1929      C1930   1.405       .  A
C1929      N1934   1.437       .  S
C1930      H1935   1.084       .  S
N1931      H1951   1.046       .  S
N1931      H1952   1.045       .  S
C1933      C1936   1.403       .  A
C1933      C1940   1.412       .  A
N1934      H1949   1.046       .  S
N1934      H1950   1.046       .  S
C1936      C1937   1.405       .  A
C1936      H1941   1.084       .  S
C1937      C1938   1.412       .  A
C1937      N1942   1.438       .  S
C1938      C1939   1.402       .  A
C1939      C1940   1.403       .  A
C1939      H1943   1.084       .  S
C1940      N1944   1.438       .  S
N1942      H1945   1.046       .  S
N1942      H1946   1.046       .  S
N1944      H1947   1.046       .  S
N1944      H1948   1.046       .  S
C1953      C1954   1.412       .  A
C1953      C1958   1.406       .  A
C1955      H1960   1.084       .  S
C1956      C1957   1.407       .  A
C1957      C1958   1.406       .  A
C1957      N1962   1.437       .  S
C1958      H2651   1.083   1_545  S
C1961      C1968   1.406   1_554  A
N1962      H2665   1.046   1_545  S
N1962      H1978   1.045       .  S
H1963      C2646   1.083       .  S
C1964      C1965   1.413       .  A
C1964      H1969   1.083       .  S
C1965      N1970   1.437       .  S
C1966      C1967   1.406       .  A
C1967      C1968   1.399       .  A
C1967      H1971   1.084       .  S
C1968      N1972   1.438       .  S
N1970      H1973   1.046       .  S
N1970      H1974   1.046       .  S
N1972      H1975   1.046       .  S
N1972      H1976   1.045       .  S
H1977      N2650   1.046       .  S
C1981      C1982   1.411       .  A
C1981      C1986   1.402       .  A
C1982      C1983   1.406       .  A
C1982      N1987   1.438       .  S
C1983      C1984   1.401       .  A
C1983      H1988   1.084       .  S
C1984      C1989   1.474       .  S
C1984      C1985   1.409       .  A
C1985      C1986   1.400       .  A
C1985      N1990   1.439       .  S
C1986      H2679   1.083   1_545  S
N1987      H2007   1.046       .  S
N1987      H2008   1.046       .  S
C1989      C1992   1.400       .  A
C1989      C1996   1.408       .  A
N1990      H2693   1.046   1_545  S
N1990      H2006   1.044       .  S
H1991      C2674   1.084       .  S
C1992      C1993   1.405       .  A
C1992      H1997   1.084       .  S
C1993      C1994   1.414       .  A
C1994      C1995   1.404       .  A
C1995      C1996   1.404       .  A
C1995      H1999   1.084       .  S
C1996      N2000   1.439       .  S
N1998      H2001   1.046       .  S
N1998      H2002   1.045       .  S
N2000      H2003   1.046       .  S
N2000      H2004   1.044       .  S
H2005      N2678   1.046       .  S
C2009      C2010   1.415       .  A
C2009      C2014   1.405       .  A
C2010      C2011   1.392       .  A
C2010      N2015   1.433       .  S
C2011      C2012   1.400       .  A
C2011      H2016   1.084       .  S
C2012      C2017   1.480       .  S
C2012      C2013   1.410       .  A
C2013      C2014   1.409       .  A
C2013      N2018   1.437       .  S
C2014      H2019   1.084       .  S
N2015      H2035   1.045       .  S
N2015      H2036   1.044       .  S
C2017      C2020   1.401       .  A
C2017      C2024   1.410       .  A
N2018      H2033   1.046       .  S
N2018      H2034   1.046       .  S
C2020      C2021   1.403       .  A
C2020      H2025   1.084       .  S
C2021      C2022   1.412       .  A
C2022      C2023   1.404       .  A
C2023      C2024   1.404       .  A
N2026      H2029   1.046       .  S
N2026      H2030   1.045       .  S
N2028      H2031   1.046       .  S
N2028      H2032   1.046       .  S
C2037      C2038   1.413       .  A
C2037      C2042   1.403       .  A
C2038      N2387   1.438       .  S
C2039      H2044   1.084       .  S
C2040      C2041   1.407       .  A
C2041      C2042   1.402       .  A
C2041      N2046   1.437       .  S
C2042      H2047   1.084       .  S
N2043      C2382   1.438       .  S
N2043      H2063   1.043       .  S
N2043      H2064   1.045   1_565  S
C2045      C2052   1.407       .  A
N2046      H2061   1.046       .  S
N2046      H2062   1.046       .  S
C2048      C2049   1.405       .  A
C2048      H2053   1.084       .  S
C2049      N2054   1.438       .  S
C2050      C2051   1.404       .  A
C2051      C2052   1.401       .  A
C2051      H2055   1.084       .  S
C2052      N2056   1.438       .  S
N2054      H2057   1.046       .  S
N2054      H2058   1.046       .  S
N2056      H2059   1.046       .  S
N2056      H2060   1.046       .  S
O2065      C2068   1.270       .  A
O2065     Cd2070   2.446       .  S
C2066      O2075   1.261       .  A
C2066      O2071   1.269       .  A
O2067      C2073   1.269       .  A
O2067     Cd2070   2.478       .  S
C2068      O2076   1.266       .  A
C2068      C2128   1.459       .  S
C2069      O2074   1.268       .  A
C2069      O2072   1.265       .  A
C2069      C2082   1.461       .  S
Cd2070     O2077   2.408       .  S
Cd2070     O2076   2.427       .  S
Cd2070     O2075   2.395       .  S
Cd2070     O2071   2.520       .  S
Cd2070     O2074   2.462       .  S
Cd2070     O2072   2.432       .  S
C2073      O2077   1.264       .  A
C2073      C2394   1.472       .  S
O2078      C2081   1.266       .  A
O2078     Cd2083   2.454       .  S
C2079      O2088   1.262       .  A
C2079      O2084   1.268       .  A
O2080      C2086   1.267       .  A
O2080     Cd2083   2.487       .  S
C2081      O2089   1.264       .  A
C2081      C2141   1.462       .  S
C2082      O2087   1.265       .  A
C2082      O2429   1.265       .  A
Cd2083     O2090   2.425       .  S
Cd2083     O2089   2.457       .  S
Cd2083     O2088   2.405       .  S
Cd2083     O2084   2.515       .  S
Cd2083     O2431   2.449       .  S
Cd2083     O2085   2.463       .  S
O2085      C2426   1.265       .  A
C2086      O2090   1.263       .  A
C2086      C2353   1.476       .  S
O2087     Cd2427   2.447       .  S
C2091      C2297   1.490   1_556  S
C2091      C2096   1.401   1_556  A
C2092      C2381   1.472       .  S
C2092      C2093   1.398       .  A
C2093      C2094   1.398       .  A
C2093      H2098   1.084       .  S
C2095      C2096   1.402   1_556  A
C2096      H2097   1.084       .  S
O2099      C2102   1.267       .  A
O2099     Cd2104   2.442       .  S
C2100      O2109   1.262       .  A
C2100      O2105   1.269       .  A
O2101      C2107   1.268       .  A
O2101     Cd2104   2.475       .  S
C2102      O2110   1.267       .  A
C2102      C2160   1.462       .  S
C2103      O2108   1.270       .  A
C2103      O2106   1.264       .  A
C2103      C2310   1.487       .  S
Cd2104     O2111   2.450       .  S
Cd2104     O2110   2.455       .  S
Cd2104     O2109   2.396       .  S
Cd2104     O2105   2.515       .  S
Cd2104     O2108   2.510       .  S
Cd2104     O2106   2.411       .  S
C2107      O2111   1.265       .  A
C2107      C2120   1.466       .  S
O2112      C2115   1.269       .  A
O2112     Cd2117   2.470       .  S
C2113      O2122   1.260       .  A
C2113      O2118   1.268       .  A
O2114      C2120   1.268       .  A
O2114     Cd2461   2.460       .  S
C2115      O2123   1.266       .  A
C2115      C2173   1.465       .  S
C2116      O2121   1.266       .  A
C2116      O2119   1.264       .  A
C2116      C2338   1.476       .  S
Cd2117     O2458   2.460       .  S
Cd2117     O2124   2.461       .  S
Cd2117     O2123   2.439       .  S
Cd2117     O2122   2.400       .  S
Cd2117     O2118   2.528       .  S
Cd2117     O2121   2.472       .  S
Cd2117     O2119   2.445       .  S
C2120      O2468   1.266       .  A
O2124      C2464   1.266       .  A
O2125      C2128   1.268       .  A
O2125     Cd2130   2.440       .  S
C2126      O2135   1.261       .  A
C2126      O2131   1.267       .  A
C2126      C2162   1.463       .  S
O2127     Cd2130   2.439       .  S
C2128      O2136   1.265       .  A
C2129      O2134   1.267       .  A
C2129      O2132   1.264       .  A
C2129      C2282   1.475       .  S
Cd2130     O2137   2.461       .  S
Cd2130     O2136   2.434       .  S
Cd2130     O2135   2.405       .  S
Cd2130     O2131   2.519       .  S
Cd2130     O2134   2.468       .  S
Cd2130     O2132   2.444       .  S
C2133      C2146   1.460   1_455  S
O2138      C2141   1.268       .  A
O2138     Cd2143   2.457       .  S
C2139      O2148   1.263       .  A
C2139      O2144   1.270       .  A
C2139      C2175   1.465       .  S
O2140      C2146   1.268       .  A
O2140     Cd2143   2.467       .  S
C2141      O2149   1.265       .  A
C2142      O2147   1.270       .  A
C2142      O2145   1.265       .  A
C2142      C2241   1.476       .  S
Cd2143     O2150   2.421       .  S
Cd2143     O2149   2.438       .  S
Cd2143     O2148   2.396       .  S
Cd2143     O2144   2.509       .  S
Cd2143     O2147   2.482       .  S
Cd2143     O2145   2.396       .  S
C2146      O2150   1.264       .  A
C2151      C2185   1.486       .  S
C2151      C2152   1.418       .  A
C2151      C2156   1.403       .  A
C2152      C2269   1.479       .  S
C2152      C2153   1.399       .  A
C2153      C2154   1.398       .  A
C2153      H2158   1.084       .  S
C2154      C2254   1.476       .  S
C2154      C2155   1.413       .  A
C2155      C2213   1.480       .  S
C2155      C2156   1.400       .  A
C2156      H2157   1.084       .  S
O2159      C2162   1.269       .  A
O2159     Cd2164   2.510       .  S
C2160      O2169   1.265       .  A
C2160      O2165   1.268       .  A
O2161      C2167   1.267       .  A
C2162      O2170   1.262       .  A
C2163      O2168   1.269       .  A
C2163      O2166   1.265       .  A
C2163      C2198   1.487       .  S
Cd2164     O2171   2.467       .  S
Cd2164     O2170   2.393       .  S
Cd2164     O2169   2.438       .  S
Cd2164     O2165   2.461       .  S
Cd2164     O2168   2.491       .  S
Cd2164     O2166   2.433       .  S
C2167      C2180   1.463   1_455  S
O2172      C2175   1.269       .  A
O2172     Cd2177   2.521       .  S
C2173      O2182   1.268       .  A
C2173      O2178   1.270       .  A
O2174      C2180   1.269       .  A
O2174     Cd2177   2.481       .  S
C2175      O2183   1.261       .  A
C2176      O2181   1.270       .  A
C2176      O2179   1.264       .  A
C2176      C2226   1.474       .  S
Cd2177     O2184   2.431       .  S
Cd2177     O2183   2.404       .  S
Cd2177     O2182   2.452       .  S
Cd2177     O2178   2.441       .  S
Cd2177     O2181   2.479       .  S
Cd2177     O2179   2.428       .  S
C2180      O2184   1.264       .  A
C2185      C2186   1.418       .  A
C2185      C2190   1.403       .  A
C2186      C2187   1.402       .  A
C2186      N2191   1.438       .  S
C2187      C2188   1.402       .  A
C2187      H2192   1.084       .  S
C2188      C2193   1.481       .  S
C2188      C2189   1.409       .  A
C2189      C2190   1.404       .  A
C2189      N2194   1.438       .  S
C2190      H2195   1.084       .  S
N2191      H2211   1.044       .  S
N2191      H2212   1.045       .  S
C2193      C2196   1.403       .  A
C2193      C2200   1.415       .  A
N2194      H2209   1.046       .  S
N2194      H2210   1.045       .  S
C2196      C2197   1.410       .  A
C2196      H2201   1.084       .  S
C2197      C2198   1.415       .  A
C2197      N2202   1.437       .  S
C2198      C2199   1.406       .  A
C2199      C2200   1.398       .  A
C2199      H2203   1.084       .  S
C2200      N2204   1.440       .  S
N2202      H2205   1.046       .  S
N2202      H2206   1.046       .  S
N2204      H2207   1.046       .  S
N2204      H2208   1.042       .  S
C2213      C2214   1.407       .  A
C2213      C2218   1.401       .  A
C2214      C2215   1.403       .  A
C2214      N2219   1.437       .  S
C2215      C2216   1.405       .  A
C2215      H2220   1.083       .  S
C2216      C2221   1.490       .  S
C2216      C2217   1.416       .  A
C2217      C2218   1.407       .  A
C2217      N2222   1.438       .  S
C2218      H2223   1.083       .  S
N2219      H2239   1.045       .  S
N2219      H2240   1.046       .  S
C2221      C2224   1.404       .  A
C2221      C2228   1.413       .  A
N2222      H2237   1.046       .  S
N2222      H2238   1.043       .  S
C2224      C2225   1.407       .  A
C2224      H2229   1.083       .  S
C2225      C2226   1.411       .  A
C2225      N2230   1.437       .  S
C2226      C2227   1.399       .  A
C2227      C2228   1.401       .  A
C2227      H2231   1.084       .  S
C2228      N2232   1.431       .  S
N2230      H2233   1.046       .  S
N2230      H2234   1.046       .  S
N2232      H2235   1.046       .  S
N2232      H2236   1.045       .  S
C2241      C2242   1.412       .  A
C2241      C2246   1.403       .  A
C2242      C2243   1.409       .  A
C2242      N2247   1.437       .  S
C2243      C2244   1.403       .  A
C2243      H2248   1.083       .  S
C2244      C2249   1.475       .  S
C2244      C2245   1.406       .  A
C2245      C2246   1.397       .  A
C2245      N2250   1.437       .  S
C2246      H2251   1.084       .  S
N2247      H2267   1.046       .  S
N2247      H2268   1.046       .  S
C2249      C2252   1.403       .  A
C2249      C2256   1.415       .  A
N2250      H2265   1.046       .  S
N2250      H2266   1.045       .  S
C2252      C2253   1.403       .  A
C2252      H2257   1.084       .  S
C2253      C2254   1.406       .  A
C2253      N2258   1.437       .  S
C2254      C2255   1.401       .  A
C2255      C2256   1.399       .  A
C2255      H2259   1.084       .  S
C2256      N2260   1.438       .  S
N2258      H2261   1.046       .  S
N2258      H2262   1.045       .  S
N2260      H2263   1.044       .  S
N2260      H2264   1.043       .  S
C2269      C2270   1.409       .  A
C2269      C2274   1.401       .  A
C2270      C2271   1.401       .  A
C2270      N2275   1.437       .  S
C2271      C2272   1.402       .  A
C2271      H2276   1.083       .  S
C2272      C2277   1.482       .  S
C2272      C2273   1.411       .  A
C2273      C2274   1.405       .  A
C2273      N2278   1.437       .  S
C2274      H2279   1.084       .  S
N2275      H2295   1.046       .  S
N2275      H2296   1.045       .  S
C2277      C2280   1.403       .  A
C2277      C2284   1.412       .  A
N2278      H2293   1.046       .  S
N2278      H2294   1.046       .  S
C2280      C2281   1.405       .  A
C2280      H2285   1.084       .  S
C2281      C2282   1.412       .  A
C2281      N2286   1.438       .  S
C2282      C2283   1.402       .  A
C2283      C2284   1.403       .  A
C2283      H2287   1.084       .  S
C2284      N2288   1.438       .  S
N2286      H2289   1.046       .  S
N2286      H2290   1.046       .  S
N2288      H2291   1.046       .  S
N2288      H2292   1.046       .  S
C2297      C2298   1.412   1_554  A
C2297      C2302   1.407       .  A
C2298      C2643   1.405       .  A
C2298      N2647   1.438       .  S
C2299      C2642   1.405       .  A
C2299      C2644   1.401       .  A
C2299      H2304   1.084       .  S
C2300      C2649   1.479       .  S
C2300      C2643   1.401   1_554  A
C2300      C2301   1.407       .  A
C2301      C2302   1.406       .  A
C2301      N2306   1.437       .  S
N2303      C2642   1.438       .  S
C2305      C2644   1.479       .  S
C2305      C2652   1.403       .  A
C2305      C2312   1.406       .  A
N2306      H2322   1.045       .  S
C2308      C2649   1.403       .  A
C2308      C2309   1.412       .  A
C2308      H2313   1.083       .  S
C2309      C2654   1.416   1_554  A
C2309      N2314   1.437       .  S
C2310      C2653   1.415       .  A
C2310      C2311   1.407       .  A
C2311      C2312   1.399       .  A
C2311      H2315   1.083       .  S
C2312      N2316   1.439       .  S
N2314      H2317   1.046       .  S
N2314      H2318   1.046       .  S
N2316      H2319   1.045       .  S
N2316      H2320   1.045       .  S
C2325      C2326   1.411   1_554  A
C2325      C2330   1.402       .  A
C2326      C2327   1.406       .  A
C2326      N2331   1.438       .  S
C2327      C2328   1.401   1_556  A
C2327      H2332   1.084       .  S
C2328      C2333   1.474       .  S
C2328      C2329   1.409       .  A
C2329      C2330   1.400       .  A
C2329      N2334   1.439       .  S
N2331      H2351   1.046       .  S
N2331      H2352   1.046       .  S
C2333      C2336   1.400   1_554  A
C2333      C2340   1.408       .  A
N2334      H2350   1.044       .  S
C2336      C2337   1.405   1_556  A
C2336      H2341   1.084       .  S
C2337      C2338   1.414       .  A
C2337      N2686   1.438   1_554  S
C2338      C2339   1.404       .  A
C2339      C2340   1.404       .  A
C2339      H2343   1.084       .  S
C2340      N2344   1.439       .  S
N2342      C2681   1.438       .  S
N2342      H2345   1.046       .  S
N2342      H2346   1.045       .  S
N2344      H2347   1.046       .  S
N2344      H2348   1.044       .  S
C2353      C2354   1.416       .  A
C2353      C2358   1.405       .  A
C2354      C2355   1.392       .  A
C2354      N2359   1.433       .  S
C2355      C2356   1.400   1_554  A
C2355      H2360   1.084       .  S
C2356      C2361   1.480       .  S
C2356      C2357   1.410       .  A
C2357      C2358   1.409   1_556  A
C2357      N2362   1.437       .  S
C2358      H2363   1.084       .  S
N2359      H2379   1.045       .  S
N2359      H2380   1.044       .  S
C2361      C2364   1.401       .  A
C2361      C2368   1.410       .  A
N2362      H2377   1.046       .  S
N2362      H2378   1.046       .  S
C2364      C2365   1.403       .  A
C2364      H2369   1.084   1_556  S
C2365      C2366   1.412       .  A
C2366      C2367   1.404       .  A
C2367      C2368   1.405       .  A
C2367      H2715   1.083       .  S
C2368      N2716   1.437       .  S
N2370      H2373   1.046       .  S
N2370      H2374   1.045       .  S
H2371      C2711   1.084       .  S
N2372      C2712   1.437       .  S
N2372      H2375   1.046       .  S
N2372      H2376   1.045       .  S
C2381      C2382   1.413       .  A
C2381      C2386   1.403   1_556  A
C2382      C2727   1.396       .  A
C2383      C2726   1.396       .  A
C2383      C2728   1.403       .  A
C2383      H2388   1.084       .  S
C2384      C2733   1.474       .  S
C2384      C2727   1.402       .  A
C2384      C2385   1.406   1_556  A
C2385      C2386   1.402       .  A
C2385      N2390   1.437       .  S
C2386      H2391   1.084       .  S
N2387      H2407   1.043       .  S
N2387      H2408   1.045       .  S
C2389      C2728   1.475       .  S
C2389      C2736   1.403       .  A
C2389      C2396   1.406       .  A
N2390      H2405   1.046       .  S
N2390      H2406   1.046       .  S
C2392      C2733   1.402   1_554  A
C2392      C2393   1.405       .  A
C2392      H2397   1.083       .  S
C2393      C2738   1.411   1_554  A
C2393      N2398   1.438       .  S
C2394      C2737   1.411       .  A
C2394      C2395   1.404       .  A
C2395      C2396   1.401       .  A
C2395      H2399   1.084       .  S
C2396      N2400   1.438       .  S
N2398      H2401   1.046       .  S
N2398      H2402   1.046       .  S
N2400      H2403   1.046       .  S
N2400      H2404   1.046       .  S
O2409      C2412   1.270       .  A
O2409     Cd2414   2.446       .  S
C2410      O2419   1.261       .  A
C2410      O2415   1.269       .  A
O2411      C2417   1.269       .  A
O2411     Cd2414   2.480       .  S
C2412      O2420   1.267       .  A
C2412      C2472   1.460       .  S
C2413      O2418   1.268       .  A
C2413      O2416   1.265   1_554  A
C2413      C2426   1.462       .  S
Cd2414     O2421   2.408       .  S
Cd2414     O2420   2.430       .  S
Cd2414     O2419   2.396       .  S
Cd2414     O2415   2.520       .  S
Cd2414     O2418   2.463   1_556  S
Cd2414     O2416   2.432       .  S
C2417      O2421   1.263       .  A
C2417      C2738   1.471       .  S
O2422      C2425   1.266       .  A
O2422     Cd2427   2.454       .  S
C2423      O2432   1.262       .  A
C2423      O2428   1.268       .  A
O2424      C2430   1.266       .  A
O2424     Cd2427   2.485       .  S
C2425      O2433   1.264       .  A
C2425      C2485   1.462       .  S
C2426      O2431   1.265       .  A
Cd2427     O2434   2.425       .  S
Cd2427     O2433   2.456       .  S
Cd2427     O2432   2.404       .  S
Cd2427     O2428   2.517       .  S
Cd2427     O2429   2.462       .  S
C2430      O2434   1.263       .  A
C2430      C2697   1.475       .  S
C2435      C2641   1.491       .  S
C2435      C2440   1.401       .  A
C2436      C2725   1.473       .  S
C2436      C2437   1.398       .  A
C2437      C2438   1.398       .  A
C2437      H2442   1.084       .  S
C2439      C2440   1.402       .  A
C2440      H2441   1.084       .  S
O2443      C2446   1.267       .  A
O2443     Cd2448   2.441       .  S
C2444      O2453   1.262       .  A
C2444      O2449   1.269       .  A
O2445      C2451   1.268       .  A
O2445     Cd2448   2.476   1_554  S
C2446      O2454   1.267       .  A
C2446      C2504   1.462       .  S
C2447      O2452   1.270   1_556  A
C2447      O2450   1.264       .  A
C2447      C2654   1.488       .  S
Cd2448     O2455   2.450       .  S
Cd2448     O2454   2.455       .  S
Cd2448     O2453   2.396       .  S
Cd2448     O2449   2.515       .  S
Cd2448     O2452   2.508   1_556  S
Cd2448     O2450   2.411       .  S
C2451      O2455   1.264   1_554  A
C2451      C2464   1.466       .  S
O2456      C2459   1.269       .  A
O2456     Cd2461   2.469       .  S
C2457      O2466   1.260       .  A
C2457      O2462   1.268       .  A
O2458      C2464   1.268       .  A
C2459      O2467   1.266       .  A
C2459      C2517   1.464       .  S
C2460      O2465   1.266       .  A
C2460      O2463   1.264       .  A
C2460      C2682   1.476       .  S
Cd2461     O2468   2.459       .  S
Cd2461     O2467   2.438       .  S
Cd2461     O2466   2.401       .  S
Cd2461     O2462   2.526       .  S
Cd2461     O2465   2.472       .  S
Cd2461     O2463   2.445       .  S
O2469      C2472   1.268       .  A
O2469     Cd2474   2.442       .  S
C2470      O2479   1.261       .  A
C2470      O2475   1.267       .  A
C2470      C2506   1.463       .  S
O2471     Cd2474   2.439       .  S
C2472      O2480   1.265       .  A
C2473      O2478   1.267       .  A
C2473      O2476   1.264       .  A
C2473      C2626   1.476       .  S
Cd2474     O2481   2.460       .  S
Cd2474     O2480   2.435       .  S
Cd2474     O2479   2.407       .  S
Cd2474     O2475   2.520       .  S
Cd2474     O2478   2.469       .  S
Cd2474     O2476   2.445       .  S
C2477      C2490   1.460   1_455  S
O2482      C2485   1.269       .  A
O2482     Cd2487   2.457       .  S
C2483      O2492   1.263       .  A
C2483      O2488   1.270       .  A
C2483      C2519   1.465       .  S
O2484      C2490   1.268       .  A
O2484     Cd2487   2.466       .  S
C2485      O2493   1.265       .  A
C2486      O2491   1.270       .  A
C2486      O2489   1.265       .  A
C2486      C2585   1.476       .  S
Cd2487     O2494   2.421       .  S
Cd2487     O2493   2.438       .  S
Cd2487     O2492   2.396       .  S
Cd2487     O2488   2.509       .  S
Cd2487     O2491   2.482       .  S
Cd2487     O2489   2.396       .  S
C2490      O2494   1.264       .  A
C2495      C2529   1.485       .  S
C2495      C2496   1.418       .  A
C2495      C2500   1.403       .  A
C2496      C2613   1.479       .  S
C2496      C2497   1.399       .  A
C2497      C2498   1.398       .  A
C2497      H2502   1.084       .  S
C2498      C2598   1.476       .  S
C2498      C2499   1.413       .  A
C2499      C2557   1.480       .  S
C2499      C2500   1.400       .  A
C2500      H2501   1.084       .  S
O2503      C2506   1.269       .  A
O2503     Cd2508   2.511       .  S
C2504      O2513   1.265       .  A
C2504      O2509   1.268       .  A
O2505      C2511   1.267       .  A
C2506      O2514   1.262       .  A
C2507      O2512   1.268       .  A
C2507      O2510   1.265       .  A
C2507      C2542   1.487       .  S
Cd2508     O2515   2.467       .  S
Cd2508     O2514   2.395       .  S
Cd2508     O2513   2.439       .  S
Cd2508     O2509   2.462       .  S
Cd2508     O2512   2.492       .  S
Cd2508     O2510   2.433       .  S
C2511      C2524   1.463   1_455  S
O2516      C2519   1.269       .  A
O2516     Cd2521   2.521       .  S
C2517      O2526   1.268       .  A
C2517      O2522   1.270       .  A
O2518      C2524   1.269       .  A
O2518     Cd2521   2.481       .  S
C2519      O2527   1.261       .  A
C2520      O2525   1.270       .  A
C2520      O2523   1.264       .  A
C2520      C2570   1.474       .  S
Cd2521     O2528   2.431       .  S
Cd2521     O2527   2.404       .  S
Cd2521     O2526   2.452       .  S
Cd2521     O2522   2.440       .  S
Cd2521     O2525   2.478       .  S
Cd2521     O2523   2.428       .  S
C2524      O2528   1.264       .  A
C2529      C2530   1.418       .  A
C2529      C2534   1.403       .  A
C2530      C2531   1.402       .  A
C2530      N2535   1.438       .  S
C2531      C2532   1.402       .  A
C2531      H2536   1.084       .  S
C2532      C2537   1.481       .  S
C2532      C2533   1.409       .  A
C2533      C2534   1.403       .  A
C2533      N2538   1.438       .  S
C2534      H2539   1.084       .  S
N2535      H2555   1.044       .  S
N2535      H2556   1.045       .  S
C2537      C2540   1.403       .  A
C2537      C2544   1.416       .  A
N2538      H2553   1.046       .  S
N2538      H2554   1.045       .  S
C2540      C2541   1.410       .  A
C2540      H2545   1.084       .  S
C2541      C2542   1.415       .  A
C2541      N2546   1.437       .  S
C2542      C2543   1.406       .  A
C2543      C2544   1.397       .  A
C2543      H2547   1.084       .  S
C2544      N2548   1.440       .  S
N2546      H2549   1.046       .  S
N2546      H2550   1.046       .  S
N2548      H2551   1.046       .  S
N2548      H2552   1.042       .  S
C2557      C2558   1.407       .  A
C2557      C2562   1.400       .  A
C2558      C2559   1.403       .  A
C2558      N2563   1.437       .  S
C2559      C2560   1.405       .  A
C2559      H2564   1.083       .  S
C2560      C2565   1.490       .  S
C2560      C2561   1.416       .  A
C2561      C2562   1.407       .  A
C2561      N2566   1.438       .  S
C2562      H2567   1.083       .  S
N2563      H2583   1.045       .  S
N2563      H2584   1.046       .  S
C2565      C2568   1.404       .  A
C2565      C2572   1.413       .  A
N2566      H2581   1.046       .  S
N2566      H2582   1.043       .  S
C2568      C2569   1.407       .  A
C2568      H2573   1.083       .  S
C2569      C2570   1.411       .  A
C2569      N2574   1.437       .  S
C2570      C2571   1.399       .  A
C2571      C2572   1.401       .  A
C2571      H2575   1.084       .  S
C2572      N2576   1.431       .  S
N2574      H2577   1.046       .  S
N2574      H2578   1.046       .  S
N2576      H2579   1.046       .  S
N2576      H2580   1.045       .  S
C2585      C2586   1.412       .  A
C2585      C2590   1.403       .  A
C2586      C2587   1.409       .  A
C2586      N2591   1.437       .  S
C2587      C2588   1.403       .  A
C2587      H2592   1.083       .  S
C2588      C2593   1.475       .  S
C2588      C2589   1.406       .  A
C2589      C2590   1.397       .  A
C2589      N2594   1.437       .  S
C2590      H2595   1.084       .  S
N2591      H2611   1.046       .  S
N2591      H2612   1.046       .  S
C2593      C2596   1.403       .  A
C2593      C2600   1.415       .  A
N2594      H2609   1.046       .  S
N2594      H2610   1.045       .  S
C2596      C2597   1.403       .  A
C2596      H2601   1.084       .  S
C2597      C2598   1.406       .  A
C2597      N2602   1.437       .  S
C2598      C2599   1.401       .  A
C2599      C2600   1.399       .  A
C2599      H2603   1.084       .  S
C2600      N2604   1.438       .  S
N2602      H2605   1.046       .  S
N2602      H2606   1.045       .  S
N2604      H2607   1.044       .  S
N2604      H2608   1.043       .  S
C2613      C2614   1.408       .  A
C2613      C2618   1.401       .  A
C2614      C2615   1.401       .  A
C2614      N2619   1.437       .  S
C2615      C2616   1.402       .  A
C2615      H2620   1.083       .  S
C2616      C2621   1.482       .  S
C2616      C2617   1.411       .  A
C2617      C2618   1.405       .  A
C2617      N2622   1.437       .  S
C2618      H2623   1.084       .  S
N2619      H2639   1.046       .  S
N2619      H2640   1.045       .  S
C2621      C2624   1.403       .  A
C2621      C2628   1.412       .  A
N2622      H2637   1.046       .  S
N2622      H2638   1.046       .  S
C2624      C2625   1.405       .  A
C2624      H2629   1.084       .  S
C2625      C2626   1.412       .  A
C2625      N2630   1.438       .  S
C2626      C2627   1.402       .  A
C2627      C2628   1.403       .  A
C2627      H2631   1.084       .  S
C2628      N2632   1.438       .  S
N2630      H2633   1.046       .  S
N2630      H2634   1.046       .  S
N2632      H2635   1.046       .  S
N2632      H2636   1.046       .  S
C2641      C2642   1.412       .  A
C2641      C2646   1.407       .  A
C2643      H2648   1.084       .  S
C2644      C2645   1.407       .  A
C2645      C2646   1.406       .  A
C2645      N2650   1.437       .  S
C2649      C2656   1.406   1_554  A
N2650      H2666   1.045       .  S
C2652      C2653   1.413       .  A
C2652      H2657   1.083       .  S
C2653      N2658   1.437       .  S
C2654      C2655   1.407       .  A
C2655      C2656   1.400       .  A
C2655      H2659   1.083       .  S
C2656      N2660   1.439       .  S
N2658      H2661   1.046       .  S
N2658      H2662   1.046       .  S
N2660      H2663   1.045       .  S
N2660      H2664   1.045       .  S
C2669      C2670   1.410       .  A
C2669      C2674   1.402       .  A
C2670      C2671   1.406       .  A
C2670      N2675   1.438       .  S
C2671      C2672   1.401       .  A
C2671      H2676   1.084       .  S
C2672      C2677   1.474       .  S
C2672      C2673   1.409       .  A
C2673      C2674   1.400       .  A
C2673      N2678   1.439       .  S
N2675      H2695   1.046       .  S
N2675      H2696   1.046       .  S
C2677      C2680   1.400       .  A
C2677      C2684   1.408       .  A
N2678      H2694   1.044       .  S
C2680      C2681   1.405       .  A
C2680      H2685   1.084       .  S
C2681      C2682   1.414       .  A
C2682      C2683   1.404       .  A
C2683      C2684   1.404       .  A
C2683      H2687   1.084       .  S
C2684      N2688   1.439       .  S
N2686      H2689   1.046       .  S
N2686      H2690   1.045       .  S
N2688      H2691   1.046       .  S
N2688      H2692   1.044       .  S
C2697      C2698   1.415       .  A
C2697      C2702   1.405       .  A
C2698      C2699   1.392       .  A
C2698      N2703   1.433       .  S
C2699      C2700   1.400       .  A
C2699      H2704   1.084       .  S
C2700      C2705   1.480       .  S
C2700      C2701   1.411       .  A
C2701      C2702   1.409       .  A
C2701      N2706   1.437       .  S
C2702      H2707   1.084       .  S
N2703      H2723   1.045       .  S
N2703      H2724   1.044       .  S
C2705      C2708   1.401       .  A
C2705      C2712   1.410       .  A
N2706      H2721   1.046       .  S
N2706      H2722   1.046       .  S
C2708      C2709   1.403       .  A
C2708      H2713   1.084       .  S
C2709      C2710   1.412       .  A
C2710      C2711   1.404       .  A
C2711      C2712   1.405       .  A
N2714      H2717   1.046       .  S
N2714      H2718   1.045       .  S
N2716      H2719   1.046       .  S
N2716      H2720   1.045       .  S
C2725      C2726   1.413       .  A
C2725      C2730   1.403       .  A
C2727      H2732   1.084       .  S
C2728      C2729   1.407       .  A
C2729      C2730   1.403       .  A
C2729      N2734   1.437       .  S
C2730      H2735   1.084       .  S
N2731      H2751   1.043       .  S
N2731      H2752   1.045       .  S
C2733      C2740   1.406       .  A
N2734      H2749   1.046       .  S
N2734      H2750   1.046       .  S
C2736      C2737   1.405       .  A
C2736      H2741   1.084       .  S
C2737      N2742   1.438       .  S
C2738      C2739   1.403       .  A
C2739      C2740   1.401       .  A
C2739      H2743   1.084       .  S
C2740      N2744   1.438       .  S
N2742      H2745   1.046       .  S
N2742      H2746   1.046       .  S
N2744      H2747   1.046       .  S
N2744      H2748   1.046       .  S
