geometry optimzed in LAMMPS
_audit_creation_date              2020-11-30 
_audit_creation_method            'lammps2cif' 
_symmetry_space_group_name_H-M    'P1' 
_symmetry_Int_Tables_number       1 
_symmetry_cell_setting            triclinic 
loop_ 
_symmetry_equiv_pos_as_xyz 
  x,y,z 
_cell_length_a                    46.957663 
_cell_length_b                    31.353004283494265 
_cell_length_c                    35.06982033192285 
_cell_angle_alpha                 90.87592844969537 
_cell_angle_beta                  81.04190624203409 
_cell_angle_gamma                 76.61759502390797 
loop_ 
_atom_site_label 
_atom_site_type_symbol 
_atom_site_fract_x 
_atom_site_fract_y 
_atom_site_fract_z 
_atom_site_charge 
C1          C  0.02742223  0.99539223  0.28477170     0.30800
C2          C  0.48333372  0.99166989  0.24473022     0.30800
C3          C  0.00363455  0.99482454  0.32016861    -0.05400
C4          C  0.01521978  0.03851185  0.26627732    -0.06200
C5          C  0.02264547  0.95944769  0.25733587    -0.06000
C6          C  0.48235986  0.98695935  0.28899627    -0.05400
C7          C  0.49647199  0.03079530  0.23619426    -0.06200
C8          C  0.50860098  0.95234624  0.22778273    -0.06000
C9          C  0.46291635  0.98128123  0.32203987    -0.31400
N10         N  0.47800306  0.97526595  0.35264762     0.15100
C11         C  0.00398707  0.98666511  0.35849829    -0.31400
H12         H  0.02337828  0.98145481  0.37241390     0.17000
C13         C  0.48855818  0.06895225  0.21764651    -0.30400
N14         N  0.51004328  0.09137055  0.21727835     0.13800
C15         C  0.02619287  0.07305452  0.25083835    -0.30400
C16         C  0.50617526  0.91093399  0.21832709    -0.30700
N17         N  0.01417973  0.89555403  0.23746716     0.14300
H18         H  0.48649896  0.90238273  0.21124903     0.16900
C19         C  0.03439457  0.91426959  0.25074369    -0.30700
H20         H  0.05515174  0.89571945  0.25789792     0.16900
H21         H  0.04849806  0.07732261  0.25000658     0.16900
H22         H  0.43988258  0.98037709  0.32354393     0.17000
H23         H  0.46884641  0.07917479  0.20450023     0.16900
C24         C  0.28991615  0.98643227  0.26221118     0.30800
C25         C  0.23097597  0.00366000  0.28867634     0.30800
C26         C  0.28129111  0.99008624  0.30683416    -0.05400
C27         C  0.27155413  0.03059474  0.25073293    -0.06200
C28         C  0.27391528  0.95316845  0.24921800    -0.06000
C29         C  0.25097611  0.99861007  0.31974481    -0.05400
C30         C  0.24109851  0.03936180  0.26339235    -0.06200
C31         C  0.24390056  0.96180694  0.26183047    -0.06000
C32         C  0.24601509  0.00786384  0.35900321    -0.31400
N33         N  0.27241777  0.00529158  0.37102791     0.15100
C34         C  0.29417227  0.99513471  0.33937021    -0.31400
H35         H  0.31734426  0.99375723  0.33985417     0.17000
C36         C  0.22881624  0.07701130  0.24546251    -0.30400
N37         N  0.25102189  0.09192908  0.22423389     0.13800
C38         C  0.27713466  0.06414004  0.22786934    -0.30400
C39         C  0.23356963  0.93041612  0.24317760    -0.30700
N40         N  0.25693088  0.90308772  0.22015342     0.14300
H41         H  0.21069323  0.92837011  0.24526173     0.16900
C42         C  0.28171025  0.91680457  0.22396301    -0.30700
H43         H  0.30386498  0.90165200  0.20924369     0.16900
H44         H  0.29867002  0.06796515  0.21435785     0.16900
H45         H  0.22455812  0.01679506  0.37741361     0.17000
H46         H  0.20552325  0.09136837  0.24579777     0.16900
C47         C  0.49962633  0.98327895  0.72265745     0.30800
C48         C  0.44054342  0.01458257  0.74519446     0.30800
C49         C  0.48141447  0.99562772  0.68956060    -0.05400
C50         C  0.48343355  0.95086629  0.74444634    -0.06200
C51         C  0.49024401  0.02520320  0.74969862    -0.06000
C52         C  0.45097766  0.01224061  0.70097662    -0.05400
C53         C  0.45313967  0.96693478  0.75541316    -0.06200
C54         C  0.46019584  0.04026005  0.76126558    -0.06000
C55         C  0.43783992  0.00997049  0.66825056    -0.31400
N56         N  0.45941566  0.99409914  0.63748287     0.15100
C57         C  0.48551091  0.98252217  0.65092560    -0.31400
H58         H  0.99330567  0.96673983  0.65531513     0.17000
C59         C  0.44223803  0.93446323  0.77451550    -0.30400
N60         N  0.46509165  0.89968934  0.77744722     0.13800
C61         C  0.49036922  0.90910335  0.75833324    -0.30400
C62         C  0.45538515  0.07729298  0.78510729    -0.30700
N63         N  0.48190012  0.08600589  0.78811630     0.14300
H64         H  0.43404054  0.09708626  0.79875334     0.16900
C65         C  0.50356213  0.05452206  0.76635561    -0.30700
H66         H  0.01783955  0.07028456  0.77091290     0.16900
H67         H  0.00788320  0.90004909  0.78026372     0.16900
H68         H  0.41432930  0.01781164  0.66709094     0.17000
H69         H  0.41926397  0.93638702  0.78631317     0.16900
C70         C  0.23765319  0.02487200  0.76672200     0.30800
C71         C  0.18622699  0.01723215  0.74485443     0.30800
C72         C  0.23798271  0.02174137  0.72280524    -0.05400
C73         C  0.22636010  0.98453576  0.78196120    -0.06200
C74         C  0.21037697  0.06222612  0.78141305    -0.06000
C75         C  0.21177774  0.01765686  0.71200925    -0.05400
C76         C  0.19999865  0.98093687  0.77054244    -0.06200
C77         C  0.18371487  0.05961544  0.77012542    -0.06000
C78         C  0.21590490  0.01452282  0.67211369    -0.31400
N79         N  0.24408183  0.01682925  0.65817003     0.15100
C80         C  0.25785061  0.02164485  0.68889422    -0.31400
H81         H  0.28061575  0.02426294  0.68676945     0.17000
C82         C  0.19179890  0.94554874  0.78836388    -0.30400
N83         N  0.21253084  0.92673305  0.81003418     0.13800
C84         C  0.23325586  0.95122483  0.80727218    -0.30400
C85         C  0.16193333  0.09280188  0.79224675    -0.30700
N86         N  0.17522254  0.11394855  0.81597458     0.14300
H87         H  0.13822309  0.09979203  0.79292924     0.16900
C88         C  0.20434008  0.09437250  0.81044264    -0.30700
H89         H  0.21994291  0.10292644  0.82714228     0.16900
H90         H  0.25189104  0.94524191  0.82271883     0.16900
H91         H  0.19956903  0.01093672  0.65442240     0.17000
H92         H  0.17177981  0.93480008  0.78623175     0.16900
Zr93       Zr  0.44717134  0.44210878  0.01541363     2.17500
O94         O  0.41663151  0.40675104  0.06132691    -0.50500
O95         O  0.45279132  0.38476046  0.96383355    -0.73700
O96         O  0.39180455  0.46513745  0.01138746    -0.80500
O97         O  0.01647804  0.38366454  0.06685142    -0.82300
O98         O  0.38232316  0.53525343  0.99245481    -0.77900
O99         O  0.46981034  0.38042650  0.05155124    -0.89500
O100        O  0.48674253  0.39717308  0.91429626    -0.75500
O101        O  0.44778246  0.48349008  0.95909029    -0.85000
O102        O  0.49836903  0.42549117  0.98402733    -0.84700
O103        O  0.43138383  0.51759260  0.04025235    -0.71400
O104        O  0.47903534  0.46336860  0.05700974    -0.83500
Zr105      Zr  0.01200325  0.56602777  0.00702402     2.26400
Zr106      Zr  0.43155706  0.55869879  0.98323897     2.06300
Zr107      Zr  0.02821641  0.44962687  0.03784661     2.10000
Zr108      Zr  0.49848727  0.46675184  0.92792318     1.78800
O109        O  0.04933584  0.43537245  0.09688888    -0.92400
O110        O  0.47200418  0.48164907  0.87325836    -0.40200
O111        O  0.02789675  0.49148888  0.98147692    -0.76800
O112        O  0.48276820  0.54211374  0.95059351    -0.95500
O113        O  0.46357229  0.57939050  0.02452128    -0.88800
O114        O  0.01215674  0.52393863  0.06278193    -0.91600
C115        C  0.46981671  0.37377089  0.93088587     1.02100
C116        C  0.49486851  0.36483913  0.06284994     1.15100
C117        C  0.37315433  0.50012789  0.00281705     1.05800
O118        O  0.41389333  0.56720140  0.92144070    -0.93800
O119        O  0.44294823  0.62665236  0.95659168    -0.89500
O120        O  0.49010655  0.62920718  0.96352035    -0.82700
C121        C  0.46512818  0.64520095  0.95216637     1.12500
O122        O  0.42668354  0.52263931  0.13170099    -0.95800
Zr123      Zr  0.46380805  0.53836806  0.08070392     1.88900
O124        O  0.01204115  0.61768019  0.05980868    -0.72400
O125        O  0.39443294  0.61918441  0.01909938    -0.51700
O126        O  0.42694707  0.60509784  0.10582952    -0.96300
O127        O  0.48719048  0.50367071  0.13340656    -0.53600
O128        O  0.48661830  0.59566099  0.10040411    -0.72900
C129        C  0.50339792  0.61904163  0.08333708     0.99400
O130        O  0.04189978  0.59554639  0.95552379    -0.61700
O131        O  0.06374494  0.39028274  0.99814904    -0.56500
O132        O  0.06754255  0.54368384  0.00970340    -0.93200
O133        O  0.07713628  0.47327634  0.02789692    -0.91700
O134        O  0.03917712  0.42524255  0.90707663    -0.92000
O135        O  0.01920737  0.50816154  0.88928933    -0.90800
C136        C  0.08623217  0.50844032  0.01773650     1.18300
H137        H  0.50567093  0.39443919  0.97758052     0.34200
H138        H  0.48395811  0.55870788  0.92770545     0.45100
H139        H  0.02570083  0.53046874  0.07874912     0.38600
H140        H  0.41146972  0.52314049  0.05481433     0.35100
H141        H  0.45511802  0.46752248  0.87888272     0.26900
H142        H  0.38074387  0.63028767  0.00075685     0.32800
H143        H  0.42434637  0.62330480  0.08324284     0.38700
H144        H  0.05132431  0.41469366  0.92721101     0.33200
H145        H  0.07831848  0.37791910  0.01503935     0.32000
H146        H  0.07078527  0.42287898  0.08805100     0.33700
H147        H  0.50390551  0.51757724  0.13496451     0.32700
H148        H  0.02626315  0.53126473  0.90199170     0.36700
H149        H  0.05391332  0.61139135  0.96864830     0.29400
H150        H  0.40470684  0.39333604  0.04587196     0.33700
H151        H  0.42755588  0.54080281  0.15464896     0.35500
H152        H  0.05293207  0.36709078  0.99539207     0.29100
H153        H  0.05633587  0.56968088  0.94179317     0.42000
H154        H  0.39234842  0.58047201  0.92815667     0.32000
H155        H  0.46276031  0.51352649  0.87615212     0.39700
H156        H  0.49682710  0.47317558  0.12351638     0.31500
H157        H  0.38273758  0.60514044  0.03890495     0.31600
H158        H  0.40220743  0.43100619  0.07727069     0.31800
Zr159      Zr  0.19287848  0.44860699  0.03077897     2.17500
O160        O  0.16105051  0.43101583  0.08717416    -0.50500
O161        O  0.18813733  0.39075772  0.98692158    -0.73700
O162        O  0.13814111  0.47309470  0.02548289    -0.80500
O163        O  0.26586961  0.38089925  0.06331066    -0.82300
O164        O  0.13038221  0.54159024  0.00261014    -0.77900
O165        O  0.21652503  0.38529949  0.06381679    -0.89500
O166        O  0.21503730  0.40023676  0.92963893    -0.75500
O167        O  0.19215379  0.48426786  0.97145410    -0.85000
O168        O  0.24264455  0.42362446  0.99531172    -0.84700
O169        O  0.18137316  0.52540043  0.04944972    -0.71400
O170        O  0.22954048  0.46677377  0.06591066    -0.83500
Zr171      Zr  0.26608596  0.55641223  0.98971504     2.26400
Zr172      Zr  0.18091826  0.56122566  0.98934170     2.06300
Zr173      Zr  0.27937243  0.44356106  0.02939075     2.10000
Zr174      Zr  0.24110649  0.45876781  0.93634430     1.78800
O175        O  0.30177008  0.42969641  0.08751599    -0.92400
O176        O  0.21789545  0.48057571  0.87997386    -0.40200
O177        O  0.27754667  0.47956767  0.97002185    -0.76800
O178        O  0.23064002  0.53614695  0.95302701    -0.95500
O179        O  0.21661240  0.57957594  0.02576310    -0.88800
O180        O  0.26687777  0.51983663  0.04851677    -0.91600
C181        C  0.19785328  0.38031382  0.95093030     1.02100
C182        C  0.24202751  0.36678274  0.07258259     1.15100
C183        C  0.12031937  0.50783829  0.01511031     1.05800
O184        O  0.16189366  0.56865340  0.92848291    -0.93800
O185        O  0.19483202  0.62655070  0.95849269    -0.89500
O186        O  0.24372261  0.62317214  0.95986172    -0.82700
C187        C  0.21831569  0.64222636  0.95119179     1.12500
O188        O  0.18977712  0.52122916  0.14232432    -0.95800
Zr189      Zr  0.21784539  0.54287494  0.08447117     1.88900
O190        O  0.26625782  0.61613981  0.03594494    -0.72400
O191        O  0.14519318  0.62452160  0.02315756    -0.51700
O192        O  0.17645734  0.60319545  0.11163044    -0.96300
O193        O  0.24490300  0.52269669  0.13808286    -0.53600
O194        O  0.23881492  0.60520195  0.09273199    -0.72900
C195        C  0.25493597  0.62659099  0.07172223     0.99400
O196        O  0.29855883  0.56854076  0.93159504    -0.61700
O197        O  0.31187910  0.38183547  0.98939450    -0.56500
O198        O  0.32089947  0.53487915  0.99525930    -0.93200
O199        O  0.32932762  0.46583550  0.01699932    -0.91700
O200        O  0.27916229  0.39228372  0.91426391    -0.92000
O201        O  0.27288235  0.46887279  0.87704360    -0.90800
C202        C  0.33906104  0.50017305  0.00515350     1.18300
H203        H  0.24742702  0.39216151  0.99035406     0.34200
H204        H  0.23163293  0.55075073  0.92895524     0.45100
H205        H  0.28148977  0.52711950  0.06256034     0.38600
H206        H  0.16194045  0.53387934  0.06535484     0.35100
H207        H  0.21141792  0.45452388  0.87166467     0.26900
H208        H  0.15723429  0.64522789  0.02875771     0.32800
H209        H  0.18140767  0.61184067  0.13661835     0.38700
H210        H  0.27373612  0.38216428  0.89008373     0.33200
H211        H  0.32043150  0.39524905  0.96632172     0.32000
H212        H  0.32195758  0.41136072  0.07829048     0.33700
H213        H  0.26428095  0.53021506  0.13057005     0.32700
H214        H  0.27884267  0.49639901  0.88227199     0.36700
H215        H  0.31190344  0.53933066  0.92366416     0.29400
H216        H  0.14887015  0.41311408  0.07682107     0.33700
H217        H  0.18261084  0.49613555  0.13331803     0.36500
H218        H  0.32867476  0.37176106  0.00355764     0.29100
H219        H  0.28576013  0.57389183  0.91140013     0.42000
H220        H  0.14772954  0.59773849  0.93125276     0.32000
H221        H  0.19923821  0.50219286  0.89030495     0.39700
H222        H  0.24973450  0.49018594  0.13704606     0.31500
H223        H  0.13397518  0.63844844  0.00310915     0.31600
H224        H  0.14693624  0.45913454  0.09675402     0.31800
C225        C  0.20382440  0.81287077  0.83553324    -0.27400
C226        C  0.21326027  0.80814444  0.87175983     0.06200
C227        C  0.22276513  0.84347041  0.88714502     0.25800
C228        C  0.22253396  0.88212247  0.86695619    -0.11900
C229        C  0.21279727  0.88684387  0.83092252    -0.25800
C230        C  0.20363229  0.85140014  0.81537523     0.36600
C231        C  0.21398661  0.76603142  0.89253092     0.06200
F232        F  0.23173713  0.84110767  0.92217200    -0.19600
H233        H  0.22962788  0.90870758  0.87978690     0.16100
F234        F  0.19555388  0.85320722  0.77982995    -0.23300
H235        H  0.19716735  0.78612777  0.82225578     0.17800
C236        C  0.18987985  0.74561201  0.89669581     0.25800
C237        C  0.19121938  0.70588856  0.91569241    -0.11800
C238        C  0.21659103  0.68514053  0.93119331    -0.25900
C239        C  0.24064187  0.70593183  0.92698684     0.36800
C240        C  0.23926277  0.74538056  0.90796288    -0.27500
F241        F  0.16461826  0.76461388  0.88321704    -0.19600
H242        H  0.17226193  0.69135670  0.91822925     0.16100
F243        F  0.26574494  0.68852079  0.94145955    -0.23300
H244        H  0.25837515  0.75960775  0.90491057     0.17900
C245        C  0.18975052  0.29513145  0.87653806    -0.27400
C246        C  0.17179768  0.27121514  0.89857935     0.06200
C247        C  0.16245180  0.28347953  0.93822816     0.25800
C248        C  0.17076770  0.31886830  0.95497135    -0.11900
C249        C  0.18875725  0.34288525  0.93278246    -0.25800
C250        C  0.19806392  0.33036742  0.89314270     0.36600
C251        C  0.16486415  0.23203797  0.88027405     0.06200
F252        F  0.14504034  0.26156767  0.96082339    -0.19600
H253        H  0.16314780  0.32730910  0.98550227     0.16100
F254        F  0.21559092  0.35171529  0.87014105    -0.23300
H255        H  0.19814729  0.28582058  0.84630196     0.17800
C256        C  0.15755232  0.23275142  0.84264506     0.25800
C257        C  0.15680558  0.19377214  0.82299214    -0.11800
C258        C  0.16333976  0.15340647  0.84027651    -0.25900
C259        C  0.16771922  0.15324248  0.87903464     0.36800
C260        C  0.16860694  0.19202963  0.89871554    -0.27500
F261        F  0.15278941  0.27069305  0.82394184    -0.19600
H262        H  0.15396076  0.19448348  0.79293349     0.16100
F263        F  0.17425219  0.11459524  0.89639788    -0.23300
H264        H  0.17453492  0.18996689  0.92735935     0.17900
C265        C  0.48526280  0.74237648  0.89826221    -0.27400
C266        C  0.45994892  0.75892452  0.88154095     0.06200
C267        C  0.43525035  0.74055196  0.89102114     0.25800
C268        C  0.43662694  0.70477252  0.91500192    -0.11900
C269        C  0.46248040  0.68679695  0.93063174    -0.25800
C270        C  0.48651522  0.70731302  0.92281286     0.36600
C271        C  0.46006562  0.79444206  0.85359962     0.06200
F272        F  0.41021916  0.75592437  0.87575696    -0.19600
H273        H  0.41760805  0.69041954  0.92047768     0.16100
F274        F  0.51166786  0.69317706  0.93810962    -0.23300
H275        H  0.50432354  0.75658865  0.89204898     0.17800
C276        C  0.43917831  0.83496071  0.86034013     0.25800
C277        C  0.44074691  0.86881038  0.83498969    -0.11800
C278        C  0.46294459  0.86316217  0.80192548    -0.25900
C279        C  0.48327761  0.82196056  0.79457590     0.36800
C280        C  0.48197310  0.78832108  0.82037872    -0.27500
F281        F  0.41797694  0.84255413  0.89234904    -0.19600
H282        H  0.42497633  0.90006169  0.84209616     0.16100
F283        F  0.00204491  0.82727708  0.78607054    -0.23300
H284        H  0.99760775  0.76480936  0.83247177     0.17900
C285        C  0.45158274  0.26851906  0.89519823    -0.27400
C286        C  0.47906742  0.24622204  0.87344643     0.06200
C287        C  0.50306915  0.26642377  0.87132890     0.25800
C288        C  0.49939742  0.30792668  0.88943274    -0.11900
C289        C  0.47203529  0.33017154  0.91123686    -0.25800
C290        C  0.44816204  0.30962035  0.91437567     0.36600
C291        C  0.48238527  0.20267177  0.85255047     0.06200
F292        F  0.53045349  0.24555134  0.85276332    -0.19600
H293        H  0.51843789  0.32228348  0.88716917     0.16100
F294        F  0.42134184  0.32960073  0.93506941    -0.23300
H295        H  0.43246950  0.25442690  0.89696254     0.17800
C296        C  0.46923346  0.17010661  0.86992002     0.25800
C297        C  0.47031819  0.13117010  0.84900659    -0.11800
C298        C  0.48509015  0.12300556  0.81066574    -0.25900
C299        C  0.49954142  0.15424222  0.79372641     0.36800
C300        C  0.49796190  0.19377276  0.81435317    -0.27500
F301        F  0.45525562  0.17576694  0.90717413    -0.19600
H302        H  0.45912640  0.10738340  0.86256083     0.16100
F303        F  0.51347428  0.14781970  0.75646122    -0.23300
H304        H  0.50798641  0.21817587  0.79979097     0.17900
C305        C  0.36012379  0.07627072  0.75554498    -0.27400
C306        C  0.34860730  0.05741490  0.78867605     0.06200
C307        C  0.36757227  0.03489891  0.81248151     0.25800
C308        C  0.39779223  0.02445190  0.79934475    -0.11900
C309        C  0.40873906  0.03400128  0.76156629    -0.25800
C310        C  0.39039241  0.06535542  0.74237501     0.36600
C311        C  0.31906475  0.05010952  0.79101658     0.06200
F312        F  0.35668875  0.01872495  0.84590456    -0.19600
H313        H  0.41234701  0.00622073  0.81760272     0.16100
F314        F  0.40133775  0.08498017  0.71108017    -0.23300
H315        H  0.34565579  0.09567208  0.73774970     0.17800
C316        C  0.29552839  0.08486992  0.78653214     0.25800
C317        C  0.26989177  0.07602054  0.77736083    -0.11800
C318        C  0.26603181  0.03270372  0.77655016    -0.25900
C319        C  0.29031934  0.99781829  0.77919437     0.36800
C320        C  0.31644109  0.00659600  0.78722819    -0.27500
F321        F  0.29816860  0.12706054  0.78836318    -0.19600
H322        H  0.25334220  0.10338831  0.76994940     0.16100
F323        F  0.29008144  0.95574805  0.77005499    -0.23300
H324        H  0.33545078  0.97936669  0.78741086     0.17900
C325        C  0.07413782  0.95902222  0.74132568    -0.27400
C326        C  0.08400459  0.97538214  0.70614460     0.06200
C327        C  0.06437405  0.99115671  0.68095061     0.25800
C328        C  0.03438526  0.99416470  0.69254791    -0.11900
C329        C  0.02371146  0.97907122  0.72847879    -0.25800
C330        C  0.04414355  0.96216630  0.75315410     0.36600
C331        C  0.11166356  0.98876414  0.70310150     0.06200
F332        F  0.07376993  0.00849912  0.64739951    -0.19600
H333        H  0.01955366  0.01244019  0.67477972     0.16100
F334        F  0.03523553  0.95454837  0.79054891    -0.23300
H335        H  0.08922307  0.94899200  0.76176510     0.17800
C336        C  0.11059783  0.03228448  0.71446330     0.25800
C337        C  0.13498262  0.04229782  0.72700268    -0.11800
C338        C  0.16025246  0.00883004  0.72868027    -0.25900
C339        C  0.16256520  0.96693296  0.71129072     0.36800
C340        C  0.13803287  0.95669678  0.69959883    -0.27500
F341        F  0.08510644  0.06404236  0.71684879    -0.19600
H342        H  0.13378599  0.07593533  0.73534317     0.16100
F343        F  0.18822300  0.93530421  0.70709819    -0.23300
H344        H  0.13899001  0.92321676  0.69027360     0.17900
C345        C  0.27551367  0.81640332  0.13875832    -0.27400
C346        C  0.25787848  0.78765353  0.15283464     0.06200
C347        C  0.23877227  0.79888718  0.18857619     0.25800
C348        C  0.23789664  0.83744192  0.20991909    -0.11900
C349        C  0.25613602  0.86550180  0.19636000    -0.25800
C350        C  0.27466350  0.85492938  0.16013257     0.36600
C351        C  0.25974881  0.74581066  0.13064325     0.06200
F352        F  0.22074866  0.77271777  0.20283809    -0.19600
H353        H  0.22349826  0.84483343  0.23764471     0.16100
F354        F  0.29174633  0.88204779  0.14511981    -0.23300
H355        H  0.29042685  0.80862755  0.11143564     0.17800
C356        C  0.25806447  0.74488325  0.09083686     0.25800
C357        C  0.25819768  0.70549309  0.07106503    -0.11800
C358        C  0.25972832  0.66647574  0.09065959    -0.25900
C359        C  0.26254991  0.66717321  0.13006981     0.36800
C360        C  0.26275277  0.70628196  0.14962442    -0.27500
F361        F  0.25472637  0.78242465  0.07150393    -0.19600
H362        H  0.25563058  0.70594449  0.04089561     0.16100
F363        F  0.26485919  0.62997656  0.14987320    -0.23300
H364        H  0.26492824  0.70575415  0.17992283     0.17900
C365        C  0.26422625  0.16663289  0.14351428    -0.27400
C366        C  0.24583395  0.20729806  0.15872343     0.06200
C367        C  0.22757117  0.20830808  0.19502510     0.25800
C368        C  0.22856225  0.17010382  0.21571203    -0.11900
C369        C  0.24792364  0.13009934  0.20112290    -0.25800
C370        C  0.26534163  0.12859356  0.16436925     0.36600
C371        C  0.24544989  0.24808408  0.13653105     0.06200
F372        F  0.20953236  0.24652806  0.21142149    -0.19600
H373        H  0.21494453  0.17208176  0.24389277     0.16100
F374        F  0.28303172  0.09002039  0.14821411    -0.23300
H375        H  0.27763210  0.16408470  0.11514454     0.17800
C376        C  0.27176289  0.25777659  0.11708752     0.25800
C377        C  0.27071534  0.29629367  0.09663340    -0.11800
C378        C  0.24351743  0.32626853  0.09513769    -0.25900
C379        C  0.21738842  0.31676209  0.11515954     0.36800
C380        C  0.21840115  0.27808351  0.13484040    -0.27500
F381        F  0.29863021  0.23060784  0.11846620    -0.19600
H382        H  0.29125510  0.30253225  0.08181237     0.16100
F383        F  0.19061225  0.34523738  0.11651696    -0.23300
H384        H  0.19768487  0.27156982  0.14866360     0.17900
C385        C  0.26804463  0.97486917  0.55439410    -0.27400
C386        C  0.27132720  0.01328014  0.53564841     0.06200
C387        C  0.26831748  0.05186161  0.55873994     0.25800
C388        C  0.26102026  0.05227788  0.59922254    -0.11900
C389        C  0.25637559  0.01444295  0.61756666    -0.25800
C390        C  0.26049475  0.97548523  0.59484326     0.36600
C391        C  0.27487549  0.01397160  0.49235587     0.06200
F392        F  0.27185545  0.08947857  0.54207973    -0.19600
H393        H  0.25773940  0.08264756  0.61622908     0.16100
F394        F  0.25637554  0.93832229  0.61186569    -0.23300
H395        H  0.26992625  0.94479055  0.53758842     0.17800
C396        C  0.29564321  0.98107585  0.46793413     0.25800
C397        C  0.29617124  0.98002468  0.42765508    -0.11800
C398        C  0.27582285  0.01128890  0.41094595    -0.25900
C399        C  0.25628318  0.04550062  0.43506165     0.36800
C400        C  0.25580754  0.04666975  0.47513361    -0.27500
F401        F  0.31512006  0.94953871  0.48299967    -0.19600
H402        H  0.31146334  0.95347181  0.40968040     0.16100
F403        F  0.23715173  0.07743190  0.41988302    -0.23300
H404        H  0.23955151  0.07235246  0.49293658     0.17900
C405        C  0.00606707  0.69590880  0.18156156    -0.27400
C406        C  0.01648518  0.73017402  0.16319292     0.06200
C407        C  0.52940061  0.72018739  0.11187729     0.25800
C408        C  0.52278287  0.68714757  0.08968316    -0.11900
C409        C  0.51108959  0.65345731  0.10735731    -0.25800
C410        C  0.00139549  0.66087443  0.16009692     0.36600
C411        C  0.01798936  0.76979564  0.18636562     0.06200
F412        F  0.53931711  0.75300991  0.09343886    -0.19600
H413        H  0.52628030  0.68851872  0.05851078     0.16100
F414        F  0.99086205  0.62912892  0.17952292    -0.23300
H415        H  0.00115687  0.69647994  0.21280371     0.17800
C416        C  0.50726827  0.77826195  0.20730279     0.25800
C417        C  0.50984495  0.81641155  0.22624555    -0.11800
C418        C  0.01761519  0.85050872  0.22438753    -0.25900
C419        C  0.04232761  0.82893036  0.19735604     0.36800
C420        C  0.04253048  0.78886537  0.17870656    -0.27500
F421        F  0.48182082  0.76450818  0.21672950    -0.19600
H422        H  0.49143010  0.83383944  0.24758127     0.16100
F423        F  0.06520283  0.84821266  0.18677926    -0.23300
H424        H  0.06152775  0.77342186  0.15734333     0.17900
C425        C  0.47935634  0.26164617  0.11132945    -0.27400
C426        C  0.50282824  0.24976679  0.13258141     0.06200
C427        C  0.52403243  0.27535833  0.12969734     0.25800
C428        C  0.52151538  0.31195246  0.10668303    -0.11900
C429        C  0.49777849  0.32437987  0.08587866    -0.25800
C430        C  0.47678744  0.29824190  0.08829977     0.36600
C431        C  0.50526459  0.21039821  0.15693562     0.06200
F432        F  0.54682468  0.26584636  0.15005720    -0.19600
H433        H  0.53804822  0.33109742  0.10575012     0.16100
F434        F  0.45393236  0.30740180  0.06799620    -0.23300
H435        H  0.46306876  0.24208976  0.11208613     0.17800
C436        C  0.98380733  0.21228408  0.19721040     0.25800
C437        C  0.98389294  0.17666334  0.22073577    -0.11800
C438        C  0.50937108  0.13281340  0.19925009    -0.25900
C439        C  0.53453816  0.14071250  0.17567676     0.36800
C440        C  0.53243735  0.17898375  0.15477373    -0.27500
F441        F  0.96158948  0.24896805  0.20614534    -0.19600
H442        H  0.96579518  0.17863937  0.24447242     0.16100
F443        F  0.56072762  0.11027162  0.17098806    -0.23300
H444        H  0.55193538  0.18326407  0.13571929     0.17900
C445        C  0.37306148  0.94011977  0.24268225    -0.27400
C446        C  0.37970522  0.96189267  0.20900463     0.06200
C447        C  0.35774292  0.97836341  0.18716813     0.25800
C448        C  0.32851325  0.98233631  0.20377751    -0.11900
C449        C  0.32159257  0.97370792  0.24309639    -0.25800
C450        C  0.34379233  0.94692502  0.26048219     0.36600
C451        C  0.40370440  0.98345120  0.20834540     0.06200
F452        F  0.36414105  0.99667081  0.15303309    -0.19600
H453        H  0.31136853  0.99548398  0.18692368     0.16100
F454        F  0.33767172  0.92849965  0.29457444    -0.23300
H455        H  0.39048655  0.92478552  0.25849715     0.17800
C456        C  0.40243149  0.01235414  0.23992454     0.25800
C457        C  0.42853308  0.01785029  0.25032734    -0.11800
C458        C  0.45541514  0.99583157  0.22828811    -0.25900
C459        C  0.45550853  0.97838058  0.19075888     0.36800
C460        C  0.42962270  0.96973645  0.18175356    -0.27500
F461        F  0.37636460  0.02992911  0.26353159    -0.19600
H462        H  0.42779171  0.03655515  0.27680591     0.16100
F463        F  0.48069974  0.96661242  0.16427187    -0.23300
H464        H  0.43020021  0.95001946  0.15588105     0.17900
C465        C  0.14793912  0.04767268  0.31665311    -0.27400
C466        C  0.13998662  0.00739249  0.32054715     0.06200
C467        C  0.16109992  0.96933739  0.32533832     0.25800
C468        C  0.19068607  0.97015332  0.31922761    -0.11900
C469        C  0.19920793  0.00831422  0.30636779    -0.25800
C470        C  0.17778812  0.04832385  0.31080607     0.36600
C471        C  0.11146762  0.00330020  0.31244561     0.06200
F472        F  0.15328113  0.93065893  0.33177622    -0.19600
H473        H  0.20703587  0.93980515  0.32072296     0.16100
F474        F  0.18536457  0.08744247  0.31082465    -0.23300
H475        H  0.13135329  0.07787493  0.31558123     0.17800
C476        C  0.08534527  0.02850913  0.33365538     0.25800
C477        C  0.05853730  0.02464379  0.32435840    -0.11800
C478        C  0.05737153  0.99485901  0.29441331    -0.25900
C479        C  0.08389851  0.97165802  0.27157594     0.36800
C480        C  0.11076599  0.97549832  0.28108859    -0.27500
F481        F  0.08579168  0.05687351  0.36305907    -0.19600
H482        H  0.03847407  0.04572105  0.34028169     0.16100
F483        F  0.08433028  0.94854227  0.23845480    -0.23300
H484        H  0.13117854  0.95785467  0.26318565     0.17900
C485        C  0.47862822  0.94112604  0.45445384    -0.27400
C486        C  0.45466428  0.97265877  0.47488649     0.06200
C487        C  0.43527664  0.00017804  0.45379781     0.25800
C488        C  0.44157144  0.99875333  0.41303262    -0.11900
C489        C  0.46710006  0.96961200  0.39281685    -0.25800
C490        C  0.48466342  0.93928331  0.41402884     0.36600
C491        C  0.45357698  0.98085226  0.51719476     0.06200
F492        F  0.90385363  0.02857316  0.49423187    -0.19600
H493        H  0.92283661  0.02447841  0.42033651     0.16100
F494        F  0.50866664  0.90914944  0.39562178    -0.23300
H495        H  0.49366080  0.91925016  0.47002307     0.17800
C496        C  0.43042915  0.97410345  0.54548970     0.25800
C497        C  0.43191727  0.97914384  0.58516353    -0.11800
C498        C  0.45644040  0.99110651  0.59707464    -0.25900
C499        C  0.47869330  0.99986110  0.56850136     0.36800
C500        C  0.93455285  0.02585669  0.56425191    -0.27500
F501        F  0.40700056  0.96126587  0.53483992    -0.19600
H502        H  0.41436970  0.97259562  0.60649251     0.16100
F503        F  0.92366436  0.06729507  0.62453896    -0.23300
H504        H  0.92939079  0.05619947  0.54965660     0.17900
C505        C  0.53540497  0.98761433  0.26928896     0.30800
C506        C  0.97142901  0.00789640  0.27025341     0.30800
C507        C  0.50936444  0.98463167  0.30076984    -0.05400
C508        C  0.52315908  0.02919966  0.24798640    -0.06200
C509        C  0.53595791  0.94870908  0.24058501    -0.06000
C510        C  0.97466395  0.00111293  0.31344655    -0.05400
C511        C  0.98659662  0.04493104  0.25945149    -0.06200
C512        C  0.99359469  0.96667320  0.25009953    -0.06000
C513        C  0.95798193  0.99557544  0.34885634    -0.31400
N514        N  0.97603471  0.98751152  0.37626031     0.15100
C515        C  0.50636966  0.97704898  0.33951874    -0.31400
H516        H  0.52371964  0.97319198  0.35710338     0.17000
C517        C  0.98006783  0.08346498  0.24081053    -0.30400
N518        N  0.00444614  0.10037308  0.23538360     0.13800
C519        C  0.53152520  0.06725948  0.23568933    -0.30400
C520        C  0.98898480  0.92703857  0.23856671    -0.30700
N521        N  0.53071988  0.88128119  0.22343474     0.14300
H522        H  0.96809502  0.92113014  0.23323593     0.16900
C523        C  0.54850884  0.90315845  0.23883460    -0.30700
H524        H  0.56744268  0.88674793  0.25142508     0.16900
H525        H  0.55163101  0.07662691  0.23993749     0.16900
H526        H  0.93468816  0.99580231  0.35443001     0.17000
H527        H  0.95961307  0.09702290  0.23011839     0.16900
C528        C  0.78064589  0.99342756  0.27015298     0.30800
C529        C  0.72192004  0.01348819  0.29855485     0.30800
C530        C  0.77290152  0.99823380  0.31482788    -0.05400
C531        C  0.76279552  0.03797251  0.25830237    -0.06200
C532        C  0.76356992  0.96083575  0.25886512    -0.06000
C533        C  0.74278190  0.00856342  0.32865912    -0.05400
C534        C  0.73231406  0.04807053  0.27180987    -0.06200
C535        C  0.73365940  0.97072254  0.27255882    -0.06000
C536        C  0.73885012  0.01391545  0.36829134    -0.31400
N537        N  0.76576370  0.00712227  0.37962409     0.15100
C538        C  0.78690752  0.99757269  0.34722550    -0.31400
H539        H  0.81053326  0.99181964  0.34722344     0.17000
C540        C  0.72053370  0.08614645  0.25394123    -0.30400
N541        N  0.74299323  0.10050062  0.23290050     0.13800
C542        C  0.76883056  0.07186441  0.23596259    -0.30400
C543        C  0.72235522  0.93922895  0.25549101    -0.30700
N544        N  0.74504076  0.91085828  0.23206944     0.14300
H545        H  0.69923572  0.93817219  0.25868367     0.16900
C546        C  0.77034207  0.92380267  0.23465731    -0.30700
H547        H  0.79225124  0.90784079  0.21970314     0.16900
H548        H  0.79037500  0.07594793  0.22279106     0.16900
H549        H  0.71779208  0.02239302  0.38762061     0.17000
H550        H  0.69746648  0.10131815  0.25382826     0.16900
C551        C  0.99092481  0.99200677  0.74360974     0.30800
C552        C  0.93214779  0.02159900  0.77064825     0.30800
C553        C  0.97021944  0.99512634  0.71298614    -0.05400
C554        C  0.97738544  0.96279164  0.77279486    -0.06200
C555        C  0.98147694  0.03796080  0.76465311    -0.06000
C556        C  0.94009331  0.01093179  0.72656317    -0.05400
C557        C  0.94727856  0.97808155  0.78665082    -0.06200
C558        C  0.95155697  0.05228824  0.77795358    -0.06000
C559        C  0.92544100  0.00910486  0.69530351    -0.31400
N560        N  0.94591461  0.99212086  0.66370376     0.15100
C561        C  0.97304098  0.98222078  0.67449370    -0.31400
H562        H  0.50574623  0.96328035  0.63392826     0.17000
C563        C  0.93826484  0.94552408  0.80795441    -0.30400
N564        N  0.96209524  0.91148002  0.80866455     0.13800
C565        C  0.98591885  0.92138366  0.78640373    -0.30400
C566        C  0.94641005  0.09275790  0.79638636    -0.30700
N567        N  0.97254504  0.10430406  0.79490396     0.14300
H568        H  0.92516426  0.11192894  0.81097250     0.16900
C569        C  0.99442414  0.07081911  0.77592220    -0.30700
H570        H  0.52709432  0.05291968  0.76308532     0.16900
H571        H  0.51242866  0.88826485  0.75640585     0.16900
H572        H  0.90175553  0.01869407  0.69548774     0.17000
H573        H  0.91574182  0.94577882  0.82083123     0.16900
C574        C  0.74021585  0.02515177  0.77635568     0.30800
C575        C  0.68993745  0.01627818  0.75121722     0.30800
C576        C  0.74098499  0.02558569  0.73199645    -0.05400
C577        C  0.73035684  0.98245932  0.78776591    -0.06200
C578        C  0.71161814  0.05974396  0.79273074    -0.06000
C579        C  0.71520466  0.02109291  0.72000133    -0.05400
C580        C  0.70467131  0.97840324  0.77444722    -0.06200
C581        C  0.68568416  0.05695138  0.77944426    -0.06000
C582        C  0.71975833  0.01835869  0.68031909    -0.31400
N583        N  0.74791634  0.02067795  0.66705173     0.15100
C584        C  0.76132901  0.02537499  0.69828369    -0.31400
H585        H  0.78432109  0.02660103  0.69668539     0.17000
C586        C  0.69590677  0.94302615  0.79119198    -0.30400
N587        N  0.71537138  0.92483927  0.81449586     0.13800
C588        C  0.73565130  0.94974635  0.81401765    -0.30400
C589        C  0.66382315  0.09274282  0.79787710    -0.30700
N590        N  0.67619002  0.11507068  0.82189595     0.14300
H591        H  0.64077022  0.10230452  0.79466866     0.16900
C592        C  0.70494023  0.09436371  0.81963138    -0.30700
H593        H  0.72011790  0.10517209  0.83569372     0.16900
H594        H  0.75191778  0.94536514  0.83310028     0.16900
H595        H  0.70397169  0.01355243  0.66218093     0.17000
H596        H  0.67589754  0.93267309  0.78813999     0.16900
Zr597      Zr  0.94455100  0.44660956  0.03067168     2.17500
O598        O  0.91376198  0.41148702  0.07643731    -0.50500
O599        O  0.95002743  0.39141748  0.97823237    -0.73700
O600        O  0.88907838  0.46895927  0.02587049    -0.80500
O601        O  0.51744521  0.38226516  0.05624491    -0.82300
O602        O  0.87907581  0.53980002  0.00889447    -0.77900
O603        O  0.96827905  0.38325481  0.06432199    -0.89500
O604        O  0.98329458  0.40448404  0.92810265    -0.75500
O605        O  0.94401449  0.48923005  0.97512974    -0.85000
O606        O  0.99528635  0.43097627  0.99746437    -0.84700
O607        O  0.92865973  0.52109643  0.05690923    -0.71400
O608        O  0.97740366  0.46607603  0.07173106    -0.83500
Zr609      Zr  0.51448865  0.56311884  0.99285768     2.26400
Zr610      Zr  0.92788819  0.56355173  0.00090711     2.06300
Zr611      Zr  0.53020485  0.44663746  0.02494358     2.10000
Zr612      Zr  0.99417730  0.47365480  0.94202417     1.78800
O613        O  0.55165963  0.42920677  0.08331332    -0.92400
O614        O  0.96471843  0.48898043  0.89024293    -0.40200
O615        O  0.53078654  0.48794773  0.96812400    -0.76800
O616        O  0.97847018  0.54779666  0.96623496    -0.95500
O617        O  0.96138904  0.58290532  0.04059446    -0.88800
O618        O  0.51408428  0.52142856  0.04881845    -0.91600
C619        C  0.96659853  0.38113417  0.94502170     1.02100
C620        C  0.99385238  0.36645910  0.07384439     1.15100
C621        C  0.87023475  0.50415760  0.01788420     1.05800
O622        O  0.90577470  0.57698454  0.94256434    -0.93800
O623        O  0.93922761  0.63015790  0.97287358    -0.89500
O624        O  0.98670537  0.63229751  0.97935205    -0.82700
C625        C  0.96158803  0.64811522  0.96838376     1.12500
O626        O  0.92765637  0.52218933  0.14908199    -0.95800
Zr627      Zr  0.96206176  0.54090018  0.09607334     1.88900
O628        O  0.51399804  0.61433202  0.04692205    -0.72400
O629        O  0.89277109  0.62258050  0.04140393    -0.51700
O630        O  0.92128399  0.60409613  0.11834916    -0.96300
O631        O  0.98408224  0.51409480  0.15224574    -0.53600
O632        O  0.98417006  0.59985354  0.11328535    -0.72900
C633        C  0.00088850  0.62313840  0.09595621     0.99400
O634        O  0.54501633  0.59464990  0.94360920    -0.61700
O635        O  0.56602594  0.38832680  0.98456132    -0.56500
O636        O  0.56928300  0.54165931  0.99850680    -0.93200
O637        O  0.57826529  0.47219326  0.01909930    -0.91700
O638        O  0.54544417  0.41577665  0.90237043    -0.92000
O639        O  0.52490879  0.49532612  0.87252062    -0.90800
C640        C  0.58740874  0.50729504  0.00888834     1.18300
H641        H  0.00241121  0.40006537  0.99039491     0.34200
H642        H  0.97906865  0.56473792  0.94354368     0.45100
H643        H  0.52734542  0.52802361  0.06523744     0.38600
H644        H  0.90886390  0.52625478  0.07177995     0.35100
H645        H  0.97548037  0.46731362  0.86898257     0.26900
H646        H  0.87930761  0.63736209  0.02399842     0.32800
H647        H  0.92370916  0.61140805  0.14504305     0.38700
H648        H  0.54201132  0.40247802  0.87821219     0.33200
H649        H  0.57667470  0.40381985  0.96482030     0.32000
H650        H  0.57106136  0.40856425  0.07425407     0.33700
H651        H  0.00516638  0.51522620  0.14573676     0.32700
H652        H  0.53649926  0.51339780  0.88391601     0.36700
H653        H  0.55620970  0.61073063  0.95795946     0.29400
H654        H  0.90297946  0.39635717  0.06059020     0.33700
H655        H  0.91536395  0.50618889  0.13666890     0.35500
H656        H  0.58086443  0.37615488  0.00116625     0.29100
H657        H  0.56009687  0.56936513  0.93001972     0.42000
H658        H  0.88742092  0.60021052  0.95066331     0.32000
H659        H  0.94631738  0.47926626  0.89934875     0.39700
H660        H  0.98458982  0.48233530  0.15176626     0.31500
H661        H  0.88038395  0.60764262  0.05949281     0.31600
H662        H  0.89839054  0.43571233  0.09107767     0.31800
Zr663      Zr  0.69170281  0.45187958  0.03127561     2.17500
O664        O  0.65913501  0.43578437  0.08756634    -0.50500
O665        O  0.68956896  0.39548465  0.98409150    -0.73700
O666        O  0.63804691  0.47391765  0.02171746    -0.80500
O667        O  0.76069178  0.38560242  0.07016939    -0.82300
O668        O  0.63095548  0.54184151  0.99767717    -0.77900
O669        O  0.71227091  0.38814987  0.06565138    -0.89500
O670        O  0.71886923  0.40465923  0.92846081    -0.75500
O671        O  0.69360642  0.48758410  0.97203522    -0.85000
O672        O  0.74254118  0.42766921  0.99928681    -0.84700
O673        O  0.67822897  0.52866901  0.05057223    -0.71400
O674        O  0.72571081  0.47071075  0.07041542    -0.83500
Zr675      Zr  0.76443899  0.56101847  0.99928994     2.26400
Zr676      Zr  0.68059228  0.56413652  0.99047489     2.06300
Zr677      Zr  0.77652213  0.44779390  0.03791180     2.10000
Zr678      Zr  0.74373299  0.46351352  0.94037345     1.78800
O679        O  0.79616197  0.43271822  0.09784183    -0.92400
O680        O  0.72289710  0.48544459  0.88222706    -0.40200
O681        O  0.77742827  0.48440324  0.97872965    -0.76800
O682        O  0.73162969  0.54068480  0.95817261    -0.95500
O683        O  0.71361071  0.58305226  0.03094013    -0.88800
O684        O  0.76259532  0.52408967  0.05800370    -0.91600
C685        C  0.70065391  0.38511905  0.94837373     1.02100
C686        C  0.73693822  0.37081504  0.07711899     1.15100
C687        C  0.62084341  0.50785992  0.00936935     1.05800
O688        O  0.66700288  0.57120828  0.92622967    -0.93800
O689        O  0.69535619  0.63018144  0.96412904    -0.89500
O690        O  0.74361877  0.62759252  0.96895886    -0.82700
C691        C  0.71869940  0.64615881  0.95890770     1.12500
O692        O  0.68494913  0.51587523  0.14301496    -0.95800
Zr693      Zr  0.71216783  0.54671969  0.08973477     1.88900
O694        O  0.76071098  0.62222719  0.04611258    -0.72400
O695        O  0.64262032  0.62761810  0.02007392    -0.51700
O696        O  0.66831875  0.60298851  0.11726220    -0.96300
O697        O  0.73709421  0.53513573  0.14607307    -0.53600
O698        O  0.72861828  0.61319080  0.09926204    -0.72900
C699        C  0.74598604  0.63433313  0.08026428     0.99400
O700        O  0.79833505  0.57781714  0.94457660    -0.61700
O701        O  0.81178437  0.38596095  0.00130953    -0.56500
O702        O  0.81850961  0.53892570  0.00846127    -0.93200
O703        O  0.82642933  0.46963268  0.02952979    -0.91700
O704        O  0.78321389  0.39838405  0.91943666    -0.92000
O705        O  0.77992663  0.47806227  0.88756518    -0.90800
C706        C  0.83632920  0.50409524  0.01876664     1.18300
H707        H  0.74766672  0.39623869  0.99404819     0.34200
H708        H  0.73366886  0.55573264  0.93440387     0.45100
H709        H  0.77613602  0.53159595  0.07375290     0.38600
H710        H  0.65820215  0.53657622  0.06484191     0.35100
H711        H  0.72904543  0.45871113  0.86469687     0.26900
H712        H  0.62757657  0.63250765  0.00269905     0.32800
H713        H  0.66500878  0.62367416  0.09645996     0.38700
H714        H  0.77882023  0.38812178  0.89463752     0.33200
H715        H  0.82157789  0.39915385  0.97900540     0.32000
H716        H  0.81291741  0.40665522  0.09116034     0.33700
H717        H  0.75249307  0.55223372  0.14229579     0.32700
H718        H  0.78245276  0.50756825  0.89438063     0.36700
H719        H  0.81358190  0.55010098  0.93741334     0.29400
H720        H  0.64690961  0.41789581  0.07732847     0.33700
H721        H  0.69537317  0.48448180  0.14229806     0.36500
H722        H  0.82733690  0.37684145  0.01761665     0.29100
H723        H  0.78706621  0.58135943  0.92273544     0.42000
H724        H  0.65095878  0.59834483  0.92851900     0.32000
H725        H  0.70122793  0.48932408  0.89002188     0.39700
H726        H  0.74841578  0.50411389  0.14277629     0.31500
H727        H  0.63278696  0.61687407  0.04380102     0.31600
H728        H  0.64516480  0.46422841  0.09649643     0.31800
C729        C  0.70595191  0.81228498  0.84137258    -0.27400
C730        C  0.71382410  0.80941506  0.87851163     0.06200
C731        C  0.72166075  0.84586079  0.89448273     0.25800
C732        C  0.72200604  0.88358620  0.87352018    -0.11900
C733        C  0.71422136  0.88628496  0.83638235    -0.25800
C734        C  0.70592833  0.85018050  0.82064255     0.36600
C735        C  0.71462521  0.76807328  0.89975316     0.06200
F736        F  0.72850891  0.84545096  0.93068753    -0.19600
H737        H  0.72804109  0.91102785  0.88657587     0.16100
F738        F  0.69895337  0.85067105  0.78450313    -0.23300
H739        H  0.70048589  0.78462430  0.82782481     0.17800
C740        C  0.69168556  0.74566621  0.90118612     0.25800
C741        C  0.69294189  0.70677888  0.92087556    -0.11800
C742        C  0.71724205  0.68859911  0.93921261    -0.25900
C743        C  0.74047537  0.71077465  0.93721384     0.36800
C744        C  0.73897476  0.74992524  0.91795590    -0.27500
F745        F  0.66774178  0.76152245  0.88392216    -0.19600
H746        H  0.67489215  0.69057249  0.92130044     0.16100
F747        F  0.76493842  0.69471575  0.95349190    -0.23300
H748        H  0.75736036  0.76559383  0.91654962     0.17900
C749        C  0.69689820  0.29486951  0.87551744    -0.27400
C750        C  0.67304786  0.27866473  0.89409535     0.06200
C751        C  0.65836239  0.29794685  0.93056296     0.25800
C752        C  0.66748495  0.33219496  0.94777725    -0.11900
C753        C  0.69142154  0.34843958  0.92922658    -0.25800
C754        C  0.70601575  0.32914377  0.89264752     0.36600
C755        C  0.66563251  0.23944604  0.87654177     0.06200
F756        F  0.63494422  0.28407300  0.94951559    -0.19600
H757        H  0.65556263  0.34616388  0.97579580     0.16100
F758        F  0.72971035  0.34232132  0.87369863    -0.23300
H759        H  0.70925863  0.27996455  0.84800338     0.17800
C760        C  0.66483127  0.23547100  0.83657947     0.25800
C761        C  0.66430464  0.19510522  0.81912864    -0.11800
C762        C  0.66457493  0.15794296  0.84097848    -0.25900
C763        C  0.66265881  0.16282769  0.88126082     0.36800
C764        C  0.66300173  0.20317164  0.89885151    -0.27500
F765        F  0.66631574  0.26987647  0.81395245    -0.19600
H766        H  0.66645958  0.19177260  0.78796444     0.16100
F767        F  0.66339658  0.12730660  0.90303119    -0.23300
H768        H  0.66372883  0.20485730  0.92952920     0.17900
C769        C  0.97419403  0.75709262  0.93350729    -0.27400
C770        C  0.96129981  0.76055156  0.89988216     0.06200
C771        C  0.94708384  0.72818857  0.88998226     0.25800
C772        C  0.94588474  0.69270488  0.91349824    -0.11900
C773        C  0.95932460  0.68865120  0.94682574    -0.25800
C774        C  0.97337075  0.72137235  0.95674982     0.36600
C775        C  0.96163345  0.79900519  0.87616001     0.06200
F776        F  0.93445508  0.73095995  0.85754411    -0.19600
H777        H  0.93535696  0.66758799  0.90494693     0.16100
F778        F  0.98608502  0.71894146  0.98911444    -0.23300
H779        H  0.98499548  0.78206326  0.94163953     0.17800
C780        C  0.94150802  0.83918645  0.88787376     0.25800
C781        C  0.94158238  0.87562254  0.86538171    -0.11800
C782        C  0.96196208  0.87289296  0.83085382    -0.25900
C783        C  0.98228827  0.83227559  0.81935100     0.36800
C784        C  0.98195185  0.79573876  0.84182421    -0.27500
F785        F  0.92176123  0.84306015  0.92114938    -0.19600
H786        H  0.92599941  0.90632398  0.87549383     0.16100
F787        F  0.50410277  0.81375485  0.76221854    -0.23300
H788        H  0.49808929  0.75716846  0.81431797     0.17900
C789        C  0.94648210  0.27850182  0.91006836    -0.27400
C790        C  0.97281658  0.25795039  0.88525984     0.06200
C791        C  0.99719655  0.27718121  0.88175335     0.25800
C792        C  0.99476514  0.31725358  0.90125265    -0.11900
C793        C  0.96823456  0.33849458  0.92534523    -0.25800
C794        C  0.94429176  0.31820284  0.93045537     0.36600
C795        C  0.97401312  0.21843670  0.86086761     0.06200
F796        F  0.02302461  0.25807688  0.85833853    -0.19600
H797        H  0.01381011  0.33168160  0.89751719     0.16100
F798        F  0.91856921  0.33734802  0.95407465    -0.23300
H799        H  0.92752454  0.26391188  0.91331241     0.17800
C800        C  0.99616364  0.17959977  0.86111633     0.25800
C801        C  0.99684515  0.14275643  0.83748779    -0.11800
C802        C  0.97531850  0.14403545  0.81361923    -0.25900
C803        C  0.95383649  0.18354966  0.81249205     0.36800
C804        C  0.95315005  0.22016163  0.83605753    -0.27500
F805        F  0.01626417  0.17671255  0.88546029    -0.19600
H806        H  0.01323890  0.11255889  0.83922830     0.16100
F807        F  0.93331031  0.18662832  0.78872892    -0.23300
H808        H  0.93630511  0.25006419  0.83487835     0.17900
C809        C  0.85365111  0.09080657  0.78303970    -0.27400
C810        C  0.84124474  0.07508010  0.81745101     0.06200
C811        C  0.86014925  0.05300651  0.84172198     0.25800
C812        C  0.88993380  0.03647616  0.82676953    -0.11900
C813        C  0.90060280  0.04208267  0.78779991    -0.25800
C814        C  0.88338093  0.07473395  0.76843026     0.36600
C815        C  0.81230240  0.06506850  0.81775454     0.06200
F816        F  0.84909343  0.04208972  0.87737415    -0.19600
H817        H  0.90420567  0.01829949  0.84531579     0.16100
F818        F  0.89484886  0.09019438  0.73500729    -0.23300
H819        H  0.83996179  0.11046880  0.76457498     0.17800
C820        C  0.79013459  0.09525164  0.80349652     0.25800
C821        C  0.76927381  0.08037569  0.78662467    -0.11800
C822        C  0.76705012  0.03637534  0.78893237    -0.25900
C823        C  0.78926992  0.00606130  0.80333348     0.36800
C824        C  0.81128859  0.02054726  0.81830118    -0.27500
F825        F  0.79025409  0.13851792  0.80285886    -0.19600
H826        H  0.75384356  0.10398921  0.77295718     0.16100
F827        F  0.79272847  0.96226517  0.79777541    -0.23300
H828        H  0.82939246  0.99598156  0.82634592     0.17900
C829        C  0.58002675  0.95039320  0.73475547    -0.27400
C830        C  0.59339586  0.96558218  0.70096107     0.06200
C831        C  0.57743341  0.97906163  0.67131261     0.25800
C832        C  0.54725110  0.98162673  0.67711986    -0.11900
C833        C  0.53282651  0.96912607  0.71205051    -0.25800
C834        C  0.54977356  0.95326334  0.74087944     0.36600
C835        C  0.61954699  0.98141400  0.70350965     0.06200
F836        F  0.59011724  0.99581055  0.63931475    -0.19600
H837        H  0.53524885  0.99887226  0.65606491     0.16100
F838        F  0.53666216  0.94721690  0.77705125    -0.23300
H839        H  0.59222691  0.94199259  0.75849478     0.17800
C840        C  0.61576620  0.02474416  0.71772157     0.25800
C841        C  0.63863430  0.03692943  0.73242479    -0.11800
C842        C  0.66525983  0.00591880  0.73300203    -0.25900
C843        C  0.67012781  0.96451315  0.71305609     0.36800
C844        C  0.64697591  0.95189203  0.69964147    -0.27500
F845        F  0.58925129  0.05419327  0.71979858    -0.19600
H846        H  0.63529446  0.07037590  0.74282961     0.16100
F847        F  0.69704669  0.93560116  0.70776598    -0.23300
H848        H  0.65002636  0.91868515  0.68787962     0.17900
C849        C  0.76223819  0.82518256  0.14970772    -0.27400
C850        C  0.74289443  0.79835952  0.16226982     0.06200
C851        C  0.72281967  0.81081010  0.19714554     0.25800
C852        C  0.72291754  0.84844603  0.21937040    -0.11900
C853        C  0.74315689  0.87429082  0.20753875    -0.25800
C854        C  0.76243161  0.86261198  0.17186888     0.36600
C855        C  0.74497827  0.75632545  0.14012311     0.06200
F856        F  0.70314981  0.78646298  0.20982851    -0.19600
H857        H  0.70776626  0.85664675  0.24645469     0.16100
F858        F  0.78148194  0.88743922  0.15806386    -0.23300
H859        H  0.77791532  0.81645486  0.12309217     0.17800
C860        C  0.74528008  0.75448006  0.09980075     0.25800
C861        C  0.74709184  0.71438143  0.07984624    -0.11800
C862        C  0.74839788  0.67555557  0.09974873    -0.25900
C863        C  0.74897255  0.67736539  0.13977462     0.36800
C864        C  0.74744247  0.71714003  0.15952639    -0.27500
F865        F  0.74260727  0.79166392  0.07997363    -0.19600
H866        H  0.74623461  0.71399767  0.04915349     0.16100
F867        F  0.75105103  0.64046834  0.15993682    -0.23300
H868        H  0.74817344  0.71730784  0.19024594     0.17900
C869        C  0.75111556  0.17318125  0.14939751    -0.27400
C870        C  0.73847651  0.21527000  0.16717967     0.06200
C871        C  0.72599736  0.21863372  0.20671848     0.25800
C872        C  0.72688001  0.18080840  0.22794718    -0.11900
C873        C  0.74024260  0.13896598  0.21031537    -0.25800
C874        C  0.75206553  0.13545023  0.17067920     0.36600
C875        C  0.73838750  0.25529644  0.14440765     0.06200
F876        F  0.71384965  0.25857718  0.22516997    -0.19600
H877        H  0.71783390  0.18415284  0.25848135     0.16100
F878        F  0.76413675  0.09537527  0.15247179    -0.23300
H879        H  0.76021498  0.16952314  0.11886841     0.17800
C880        C  0.76463883  0.26198767  0.12236770     0.25800
C881        C  0.76424754  0.29979819  0.10119206    -0.11800
C882        C  0.73755815  0.33121598  0.10054820    -0.25900
C883        C  0.71127719  0.32425440  0.12251283     0.36800
C884        C  0.71184371  0.28705736  0.14435150    -0.27500
F885        F  0.79079804  0.23218635  0.12168389    -0.19600
H886        H  0.78480165  0.30408203  0.08468896     0.16100
F887        F  0.68492655  0.35368672  0.12343389    -0.23300
H888        H  0.69129692  0.28267744  0.16081081     0.17900
C889        C  0.76622595  0.97523913  0.56447675    -0.27400
C890        C  0.76991968  0.01238568  0.54395092     0.06200
C891        C  0.76998607  0.05087426  0.56557424     0.25800
C892        C  0.76528538  0.05237550  0.60626770    -0.11900
C893        C  0.76030847  0.01581764  0.62642159    -0.25800
C894        C  0.76136789  0.97696216  0.60506783     0.36600
C895        C  0.77122393  0.01179648  0.50068033     0.06200
F896        F  0.77379110  0.08758659  0.54749645    -0.19600
H897        H  0.76382591  0.08290966  0.62213707     0.16100
F898        F  0.75595361  0.94133499  0.62371109    -0.23300
H899        H  0.76535837  0.94541770  0.54921941     0.17800
C900        C  0.78770285  0.97526163  0.47611067     0.25800
C901        C  0.78716777  0.97475090  0.43602116    -0.11800
C902        C  0.76989649  0.01015442  0.41954901    -0.25900
C903        C  0.75375382  0.04668182  0.44384389     0.36800
C904        C  0.75442231  0.04742473  0.48368565    -0.27500
F905        F  0.80418878  0.93980355  0.49073793    -0.19600
H906        H  0.79933587  0.94595996  0.41799080     0.16100
F907        F  0.73686840  0.08156785  0.42898191    -0.23300
H908        H  0.74081309  0.07551259  0.50146705     0.17900
C909        C  0.51368370  0.68608426  0.17023930    -0.27400
C910        C  0.52468347  0.72026406  0.15259609     0.06200
C911        C  0.02348710  0.72747690  0.12250686     0.25800
C912        C  0.01909783  0.69217389  0.10096050    -0.11900
C913        C  0.00742919  0.65885869  0.11930314    -0.25800
C914        C  0.50686105  0.65325440  0.14815978     0.36600
C915        C  0.52943329  0.75708515  0.17672397     0.06200
F916        F  0.03318784  0.76001363  0.10331638    -0.19600
H917        H  0.02400539  0.69171798  0.06971976     0.16100
F918        F  0.49641523  0.62110904  0.16702227    -0.23300
H919        H  0.51028675  0.68476805  0.20141906     0.17800
C920        C  0.99394943  0.79048090  0.21492041     0.25800
C921        C  0.99393938  0.83012607  0.23371276    -0.11800
C922        C  0.53422961  0.83496081  0.21505797    -0.25900
C923        C  0.55769082  0.81172855  0.18713116     0.36800
C924        C  0.55524231  0.77320634  0.16808083    -0.27500
F925        F  0.96943283  0.77413921  0.22282943    -0.19600
H926        H  0.97465789  0.84613425  0.25441185     0.16100
F927        F  0.58167561  0.82840875  0.17579281    -0.23300
H928        H  0.57302354  0.75695449  0.14541982     0.17900
C929        C  0.97698228  0.26719107  0.12739663    -0.27400
C930        C  0.00442923  0.24735250  0.13821547     0.06200
C931        C  0.02892318  0.26517316  0.12515396     0.25800
C932        C  0.02544396  0.30310918  0.10372430    -0.11900
C933        C  0.99751993  0.32445788  0.09475922    -0.25800
C934        C  0.97331828  0.30543964  0.10672644     0.36600
C935        C  0.00634570  0.21025699  0.16505038     0.06200
F936        F  0.05597213  0.24728347  0.13451970    -0.19600
H937        H  0.04466643  0.31631627  0.09486655     0.16100
F938        F  0.94569912  0.32430044  0.09973158    -0.23300
H939        H  0.95787431  0.25359597  0.13586620     0.17800
C940        C  0.48032674  0.20299564  0.18159096     0.25800
C941        C  0.48242298  0.16469754  0.20222615    -0.11800
C942        C  0.00682008  0.13851635  0.21374222    -0.25900
C943        C  0.03040248  0.13709409  0.18320918     0.36800
C944        C  0.02997815  0.17245302  0.15883052    -0.27500
F945        F  0.45385403  0.23285619  0.18594999    -0.19600
H946        H  0.46275891  0.15963984  0.22042938     0.16100
F947        F  0.05293728  0.10059724  0.17570256    -0.23300
H948        H  0.04764668  0.16963545  0.13441772     0.17900
C949        C  0.86266769  0.94136045  0.25455159    -0.27400
C950        C  0.87153839  0.96927341  0.22663343     0.06200
C951        C  0.85176911  0.98959948  0.20291271     0.25800
C952        C  0.82189768  0.99212160  0.21463836    -0.11900
C953        C  0.81239289  0.97865600  0.25158245    -0.25800
C954        C  0.83261613  0.94695520  0.26800625     0.36600
C955        C  0.89407848  0.99113819  0.23464952     0.06200
F956        F  0.86036611  0.01352865  0.17322933    -0.19600
H957        H  0.80642079  0.00779663  0.19646240     0.16100
F958        F  0.82371150  0.92416730  0.29834623    -0.23300
H959        H  0.87847826  0.92245328  0.27098553     0.17800
C960        C  0.89160356  0.01042478  0.27193091     0.25800
C961        C  0.91577525  0.02243958  0.28280242    -0.11800
C962        C  0.94216099  0.01475545  0.25666027    -0.25900
C963        C  0.94163114  0.00689656  0.21695016     0.36800
C964        C  0.91783134  0.99330819  0.20619651    -0.27500
F965        F  0.86655366  0.01488702  0.29843248    -0.19600
H966        H  0.91411553  0.03574806  0.31176758     0.16100
F967        F  0.96580601  0.00570488  0.18969871    -0.23300
H968        H  0.91887633  0.98163653  0.17666179     0.17900
C969        C  0.63871718  0.05465063  0.33033950    -0.27400
C970        C  0.63227428  0.01430561  0.33990814     0.06200
C971        C  0.65465082  0.97982616  0.34852754     0.25800
C972        C  0.68384809  0.98175972  0.33736793    -0.11900
C973        C  0.69058360  0.01851639  0.31862058    -0.25800
C974        C  0.66807302  0.05711928  0.32064883     0.36600
C975        C  0.60704085  0.00375553  0.32600094     0.06200
F976        F  0.64843119  0.94170840  0.36103815    -0.19600
H977        H  0.70117457  0.95292134  0.34006652     0.16100
F978        F  0.67387783  0.09683976  0.31430980    -0.23300
H979        H  0.62133339  0.08272957  0.32606624     0.17800
C980        C  0.57883671  0.03119249  0.33602356     0.25800
C981        C  0.55657490  0.02594128  0.31616646    -0.11800
C982        C  0.56173239  0.99234549  0.28684694    -0.25900
C983        C  0.59044720  0.96603755  0.27578507     0.36800
C984        C  0.61279080  0.97142009  0.29571602    -0.27500
F985        F  0.57313872  0.06380441  0.36405027    -0.19600
H986        H  0.53486730  0.04802824  0.32403302     0.16100
F987        F  0.59783904  0.93814009  0.24408063    -0.23300
H988        H  0.63515065  0.95210334  0.28584171     0.17900
C989        C  0.97991545  0.96090839  0.48035279    -0.27400
C990        C  0.95193269  0.98411005  0.49946007     0.06200
C991        C  0.93133898  0.00644175  0.47704860     0.25800
C992        C  0.93891556  0.00607111  0.43659120    -0.11900
C993        C  0.96726181  0.98374482  0.41748878    -0.25800
C994        C  0.98747106  0.96025544  0.44008638     0.36600
C995        C  0.94517646  0.98549910  0.54266633     0.06200
F996        F  0.41163806  0.03062040  0.47262123    -0.19600
H997        H  0.42770623  0.02240181  0.39745403     0.16100
F998        F  0.01453909  0.93603503  0.42352443    -0.23300
H999        H  0.99630018  0.94359734  0.49679632     0.17800
C1000       C  0.95181834  0.94677579  0.56276439     0.25800
C1001       C  0.95037357  0.94884725  0.60300390    -0.11800
C1002       C  0.94125776  0.98932221  0.62420931    -0.25900
C1003       C  0.93233062  0.02771767  0.60470090     0.36800
C1004       C  0.47734417  0.99435354  0.52930354    -0.27500
F1005       F  0.96032951  0.90694376  0.54332613    -0.19600
H1006       H  0.95725592  0.91895118  0.61763944     0.16100
F1007       F  0.50168322  0.01454443  0.57847000    -0.23300
H1008       H  0.49510201  0.00061955  0.50809571     0.17900
loop_ 
_geom_bond_atom_site_label_1 
_geom_bond_atom_site_label_2 
_geom_bond_distance 
_geom_bond_site_symmetry_2 
_ccdc_geom_bond_type 
C1            C3   1.539       .  S
C1            C5   1.548       .  S
C1            C4   1.536   1_565  S
C1          C478   1.493       .  S
C2            C6   1.556       .  S
C2            C8   1.537       .  S
C2            C7   1.510   1_565  S
C2          C458   1.492       .  S
C3           C11   1.374       .  A
C3          C510   1.386   1_465  A
C4           C15   1.386       .  A
C4          C511   1.371   1_455  A
C5           C19   1.397       .  A
C5          C512   1.394   1_455  A
C6            C9   1.400       .  A
C6          C507   1.380       .  A
C7           C13   1.373       .  A
C7          C508   1.370       .  A
C8           C16   1.370       .  A
C8          C509   1.406       .  A
C9           N10   1.368       .  A
C9           H22   1.082       .  S
N10         C515   1.354       .  A
N10         C489   1.450       .  S
C11         N514   1.357   1_455  A
C11          H12   1.080       .  S
C13          N14   1.355       .  A
C13          H23   1.083       .  S
N14         C519   1.368       .  A
N14         C438   1.450       .  S
C15         N518   1.361       .  A
C15          H21   1.082       .  S
C16         N521   1.341       .  A
C16          H18   1.082       .  S
N17          C19   1.360       .  A
N17         C520   1.349   1_455  A
N17         C418   1.443       .  S
C19          H20   1.081       .  S
C24          C26   1.550       .  S
C24          C28   1.521       .  S
C24          C27   1.548   1_565  S
C24         C449   1.493       .  S
C25          C29   1.533   1_545  S
C25          C31   1.547   1_545  S
C25          C30   1.553       .  S
C25         C469   1.497       .  S
C26          C34   1.395       .  A
C26          C29   1.386       .  A
C27          C38   1.380       .  A
C27          C30   1.391       .  A
C28          C42   1.376       .  A
C28          C31   1.371       .  A
C29          C32   1.375   1_565  A
C30          C36   1.394       .  A
C31          C39   1.390       .  A
C32          N33   1.356       .  A
C32          H45   1.082       .  S
N33          C34   1.365   1_545  A
N33         C398   1.448       .  S
C34          H35   1.082       .  S
C36          N37   1.362       .  A
C36          H46   1.080       .  S
N37          C38   1.355       .  A
N37         C369   1.448       .  S
C38          H44   1.082       .  S
C39          N40   1.363       .  A
C39          H41   1.082       .  S
N40          C42   1.355       .  A
N40         C349   1.444       .  S
C42          H43   1.082       .  S
C47          C49   1.549       .  S
C47          C51   1.544   1_565  S
C47          C50   1.548       .  S
C47         C833   1.503       .  S
C48          C52   1.547       .  S
C48          C54   1.520       .  S
C48          C53   1.544   1_545  S
C48         C309   1.494       .  S
C49          C57   1.381       .  A
C49          C52   1.395   1_565  A
C50          C61   1.389       .  A
C50          C53   1.385       .  A
C51          C65   1.393       .  A
C51          C54   1.373       .  A
C52          C55   1.393       .  A
C53          C59   1.379       .  A
C54          C62   1.374       .  A
C55          N56   1.359   1_545  A
C55          H68   1.081       .  S
N56          C57   1.355       .  A
N56         C498   1.449       .  S
C57         H562   1.081       .  S
H58         C561   1.082       .  S
C59          N60   1.359       .  A
C59          H69   1.081       .  S
N60          C61   1.366       .  A
N60         C278   1.454       .  S
C61         H571   1.081       .  S
C62          N63   1.354       .  A
C62          H64   1.083       .  S
N63          C65   1.365       .  A
N63         C298   1.443       .  S
C65         H570   1.082       .  S
H66         C569   1.082   1_455  S
H67         C565   1.079   1_455  S
C70          C72   1.539       .  S
C70          C74   1.536       .  S
C70          C73   1.552   1_545  S
C70         C318   1.499       .  S
C71          C75   1.531       .  S
C71          C77   1.557       .  S
C71          C76   1.548   1_545  S
C71         C338   1.496       .  S
C72          C80   1.392       .  A
C72          C75   1.375       .  A
C73          C84   1.395       .  A
C73          C76   1.387       .  A
C74          C88   1.371       .  A
C74          C77   1.390       .  A
C75          C78   1.381       .  A
C76          C82   1.383       .  A
C77          C85   1.402       .  A
C78          N79   1.356       .  A
C78          H91   1.083       .  S
N79          C80   1.363       .  A
N79         C389   1.445       .  S
C80          H81   1.082       .  S
C82          N83   1.361       .  A
C82          H92   1.082       .  S
N83          C84   1.366       .  A
N83         C229   1.458       .  S
C84          H90   1.081       .  S
C85          N86   1.363       .  A
C85          H87   1.080       .  S
N86          C88   1.345       .  A
N86         C258   1.438       .  S
C88          H89   1.082       .  S
Zr93         O94   2.439       .  S
Zr93         O95   2.471   1_554  S
Zr93         O96   2.559       .  S
Zr93         O99   2.453       .  S
Zr93        O101   2.380   1_554  S
Zr93        O102   2.417   1_554  S
Zr93        O103   2.415       .  S
Zr93        O104   2.434       .  S
O94         H150   0.990       .  S
O94         H158   0.990       .  S
O95         C115   1.291       .  A
O96         C117   1.307       .  A
O97        Zr107   2.456       .  S
O97         C620   1.292   1_455  A
O98        Zr106   2.559       .  S
O98         C117   1.309   1_556  A
O99         C116   1.290       .  A
O100       Zr108   2.429       .  S
O100        C115   1.284       .  A
O101       Zr106   2.401       .  S
O101       Zr108   2.394       .  S
O102       Zr108   2.371       .  S
O102       Zr611   2.415   1_556  S
O102        H137   0.965       .  S
O103       Zr106   2.395   1_554  S
O103       Zr123   2.420       .  S
O103        H140   0.969       .  S
O104       Zr123   2.389       .  S
O104       Zr611   2.423       .  S
Zr105       O130   2.440   1_554  S
Zr105       O124   2.441       .  S
Zr105       O132   2.556       .  S
Zr105       O624   2.439   1_454  S
Zr105       O111   2.396   1_554  S
Zr105       O114   2.376       .  S
Zr105       O616   2.438   1_454  S
Zr105       O617   2.417   1_455  S
Zr106       O125   2.435   1_556  S
Zr106       O118   2.435       .  S
Zr106       O119   2.476       .  S
Zr106       O112   2.431       .  S
Zr106       O113   2.424   1_556  S
Zr107       O109   2.436       .  S
Zr107       O131   2.438   1_554  S
Zr107       O133   2.549       .  S
Zr107       O111   2.390   1_554  S
Zr107       O114   2.383       .  S
Zr107       O606   2.411   1_454  S
Zr107       O608   2.429   1_455  S
Zr108       O110   2.437       .  S
Zr108       O638   2.435       .  S
Zr108       O639   2.436       .  S
Zr108       O112   2.390       .  S
Zr108       O615   2.415       .  S
O109        H146   0.990       .  S
O110        H141   0.990       .  S
O110        H155   0.990       .  S
O111       Zr612   2.409   1_455  S
O112       Zr609   2.442       .  S
O112        H138   0.965       .  S
O113       Zr123   2.369       .  S
O113       Zr609   2.409   1_554  S
O114       Zr627   2.393   1_455  S
O114        H139   0.963       .  S
C115        C289   1.496       .  S
C116        O601   1.293       .  A
C116        C429   1.505       .  S
C117        C202   1.590       .  S
O118        H154   0.990       .  S
O119        C121   1.296       .  A
O120       Zr609   2.449       .  S
O120        C121   1.290       .  A
C121        C269   1.507       .  S
O122       Zr123   2.436       .  S
O122        H151   0.990       .  S
Zr123       O126   2.438       .  S
Zr123       O127   2.438       .  S
Zr123       O128   2.436       .  S
Zr123       O618   2.384       .  S
O124        C633   1.287       .  A
O125        H142   0.990       .  S
O125        H157   0.990       .  S
O126        H143   0.990       .  S
O127        H147   0.990       .  S
O127        H156   0.990       .  S
O128        C129   1.285       .  A
C129        O628   1.289       .  A
C129        C409   1.501       .  S
O130        H149   0.990       .  S
O130        H153   0.990       .  S
O131        H145   0.990   1_556  S
O131        H152   0.990       .  S
O132        C136   1.307       .  A
O133        C136   1.307       .  A
O134       Zr612   2.434   1_455  S
O134        H144   0.989       .  S
O135       Zr612   2.438   1_455  S
O135        H148   0.990       .  S
C136        C183   1.585       .  S
Zr159       O160   2.438       .  S
Zr159       O161   2.432   1_554  S
Zr159       O162   2.544       .  S
Zr159       O165   2.443       .  S
Zr159       O167   2.378   1_554  S
Zr159       O168   2.416   1_554  S
Zr159       O169   2.399       .  S
Zr159       O170   2.429       .  S
O160        H216   0.990       .  S
O160        H224   0.990       .  S
O161        C181   1.284       .  A
O162        C183   1.305       .  A
O163       Zr173   2.468       .  S
O163        C182   1.294       .  A
O164       Zr172   2.563   1_554  S
O164        C183   1.310       .  A
O165        C182   1.290       .  A
O166       Zr174   2.457       .  S
O166        C181   1.288       .  A
O167       Zr172   2.399       .  S
O167       Zr174   2.383       .  S
O168       Zr173   2.431   1_556  S
O168       Zr174   2.361       .  S
O168        H203   0.966       .  S
O169       Zr172   2.404   1_554  S
O169       Zr189   2.411       .  S
O169        H206   0.969       .  S
O170       Zr173   2.428       .  S
O170       Zr189   2.378       .  S
Zr171       O196   2.439       .  S
Zr171       O190   2.460   1_556  S
Zr171       O198   2.544       .  S
Zr171       O186   2.444       .  S
Zr171       O177   2.409       .  S
Zr171       O178   2.442       .  S
Zr171       O179   2.408   1_556  S
Zr171       O180   2.376   1_556  S
Zr172       O191   2.434   1_556  S
Zr172       O184   2.433       .  S
Zr172       O185   2.502       .  S
Zr172       O178   2.426       .  S
Zr172       O179   2.421   1_556  S
Zr173       O175   2.436       .  S
Zr173       O197   2.434   1_554  S
Zr173       O199   2.575       .  S
Zr173       O177   2.387   1_554  S
Zr173       O180   2.386       .  S
Zr174       O200   2.436       .  S
Zr174       O201   2.434       .  S
Zr174       O176   2.435       .  S
Zr174       O177   2.423       .  S
Zr174       O178   2.405       .  S
O175        H212   0.990       .  S
O176        H207   0.990       .  S
O176        H221   0.988       .  S
O178        H204   0.966       .  S
O179       Zr189   2.376       .  S
O180       Zr189   2.390       .  S
O180        H205   0.969       .  S
C181        C249   1.503       .  S
C182        C378   1.500       .  S
O184        H220   0.990       .  S
O185        C187   1.300       .  A
O186        C187   1.289       .  A
C187        C238   1.518       .  S
O188       Zr189   2.437       .  S
O188        H217   0.990       .  S
Zr189       O192   2.435       .  S
Zr189       O193   2.441       .  S
Zr189       O194   2.415       .  S
O190        C195   1.290       .  A
O191        H208   0.990       .  S
O191        H223   0.990       .  S
O192        H209   0.990       .  S
O193        H213   0.990       .  S
O193        H222   0.990       .  S
O194        C195   1.281       .  A
C195        C358   1.486       .  S
O196        H215   0.990       .  S
O196        H219   0.990       .  S
O197        H211   0.990       .  S
O197        H218   0.990   1_556  S
O198        C202   1.306   1_556  A
O199        C202   1.313       .  A
O200        H210   0.991       .  S
O201        H214   0.990       .  S
C225        C226   1.408       .  A
C225        C230   1.408       .  A
C225        H235   1.083       .  S
C226        C227   1.415       .  A
C226        C231   1.514       .  S
C227        C228   1.412       .  A
C227        F232   1.357       .  S
C228        C229   1.408       .  A
C228        H233   1.083       .  S
C229        C230   1.412       .  A
C230        F234   1.357       .  S
C231        C236   1.414       .  A
C231        C240   1.406       .  A
C236        C237   1.415       .  A
C236        F241   1.357       .  S
C237        C238   1.411       .  A
C237        H242   1.083       .  S
C238        C239   1.419       .  A
C239        C240   1.407       .  A
C239        F243   1.357       .  S
C240        H244   1.083       .  S
C245        C246   1.406       .  A
C245        C250   1.401       .  A
C245        H255   1.083       .  S
C246        C247   1.410       .  A
C246        C251   1.501       .  S
C247        C248   1.407       .  A
C247        F252   1.358       .  S
C248        C249   1.412       .  A
C248        H253   1.083       .  S
C249        C250   1.411       .  A
C250        F254   1.357       .  S
C251        C256   1.414       .  A
C251        C260   1.407       .  A
C256        C257   1.404       .  A
C256        F261   1.357       .  S
C257        C258   1.402       .  A
C257        H262   1.083       .  S
C258        C259   1.406       .  A
C259        C260   1.401       .  A
C259        F263   1.357       .  S
C260        H264   1.082       .  S
C265        C266   1.402       .  A
C265        C270   1.403       .  A
C265        H275   1.084       .  S
C266        C267   1.408       .  A
C266        C271   1.495       .  S
C267        C268   1.408       .  A
C267        F272   1.357       .  S
C268        C269   1.411       .  A
C268        H273   1.083       .  S
C269        C270   1.417       .  A
C270        F274   1.357       .  S
C271        C276   1.405       .  A
C271        C280   1.407       .  A
C276        C277   1.402       .  A
C276        F281   1.357       .  S
C277        C278   1.412       .  A
C277        H282   1.082       .  S
C278        C279   1.410       .  A
C279        C280   1.406       .  A
C279        F787   1.356       .  S
C280        H788   1.083       .  S
F283        C783   1.355   1_455  S
H284        C784   1.083       .  S
C285        C286   1.413       .  A
C285        C290   1.408       .  A
C285        H295   1.082       .  S
C286        C287   1.408       .  A
C286        C291   1.504       .  S
C287        C288   1.401       .  A
C287        F292   1.357       .  S
C288        C289   1.409       .  A
C288        H293   1.083       .  S
C289        C290   1.408       .  A
C290        F294   1.357       .  S
C291        C296   1.410       .  A
C291        C300   1.413       .  A
C296        C297   1.401       .  A
C296        F301   1.357       .  S
C297        C298   1.404       .  A
C297        H302   1.083       .  S
C298        C299   1.404       .  A
C299        C300   1.406       .  A
C299        F303   1.357       .  S
C300        H304   1.082       .  S
C305        C306   1.402       .  A
C305        C310   1.384       .  A
C305        H315   1.083       .  S
C306        C307   1.395       .  A
C306        C311   1.448       .  S
C307        C308   1.382       .  A
C307        F312   1.358       .  S
C308        C309   1.407       .  A
C308        H313   1.082       .  S
C309        C310   1.404       .  A
C310        F314   1.356       .  S
C311        C316   1.391       .  A
C311        C320   1.404       .  A
C316        C317   1.379       .  A
C316        F321   1.358       .  S
C317        C318   1.412       .  A
C317        H322   1.081       .  S
C318        C319   1.402   1_545  A
C319        C320   1.386   1_565  A
C319        F323   1.356       .  S
C320        H324   1.084   1_545  S
C325        C326   1.397       .  A
C325        C330   1.385       .  A
C325        H335   1.085       .  S
C326        C327   1.390       .  A
C326        C331   1.444       .  S
C327        C328   1.384       .  A
C327        F332   1.358   1_565  S
C328        C329   1.412       .  A
C328        H333   1.078   1_565  S
C329        C551   1.505   1_455  S
C329        C330   1.410       .  A
C330        F334   1.355       .  S
C331        C336   1.403   1_565  A
C331        C340   1.390       .  A
C336        C337   1.386       .  A
C336        F341   1.359       .  S
C337        C338   1.400       .  A
C337        H342   1.077       .  S
C338        C339   1.414   1_545  A
C339        C340   1.383       .  A
C339        F343   1.358       .  S
C340        H344   1.083       .  S
C345        C346   1.405       .  A
C345        C350   1.401       .  A
C345        H355   1.083       .  S
C346        C347   1.411       .  A
C346        C351   1.493       .  S
C347        C348   1.401       .  A
C347        F352   1.357       .  S
C348        C349   1.403       .  A
C348        H353   1.083       .  S
C349        C350   1.411       .  A
C350        F354   1.357       .  S
C351        C356   1.411       .  A
C351        C360   1.404       .  A
C356        C357   1.405       .  A
C356        F361   1.357       .  S
C357        C358   1.405       .  A
C357        H362   1.083       .  S
C358        C359   1.409       .  A
C359        C360   1.398       .  A
C359        F363   1.358       .  S
C360        H364   1.083       .  S
C365        C366   1.408       .  A
C365        C370   1.403       .  A
C365        H375   1.082       .  S
C366        C367   1.415       .  A
C366        C371   1.505       .  S
C367        C368   1.405       .  A
C367        F372   1.357       .  S
C368        C369   1.403       .  A
C368        H373   1.083       .  S
C369        C370   1.409       .  A
C370        F374   1.357       .  S
C371        C376   1.415       .  A
C371        C380   1.405       .  A
C376        C377   1.409       .  A
C376        F381   1.357       .  S
C377        C378   1.408       .  A
C377        H382   1.083       .  S
C378        C379   1.412       .  A
C379        C380   1.399       .  A
C379        F383   1.357       .  S
C380        H384   1.082       .  S
C385        C386   1.409   1_565  A
C385        C390   1.406       .  A
C385        H395   1.083       .  S
C386        C387   1.412       .  A
C386        C391   1.502       .  S
C387        C388   1.407       .  A
C387        F392   1.357       .  S
C388        C389   1.403       .  A
C388        H393   1.083       .  S
C389        C390   1.406   1_545  A
C390        F394   1.357       .  S
C391        C396   1.413   1_545  A
C391        C400   1.407       .  A
C396        C397   1.409       .  A
C396        F401   1.357       .  S
C397        C398   1.406   1_565  A
C397        H402   1.083       .  S
C398        C399   1.408       .  A
C399        C400   1.402       .  A
C399        F403   1.357       .  S
C400        H404   1.083       .  S
C405        C406   1.405       .  A
C405        C410   1.400       .  A
C405        H415   1.083       .  S
C406        C911   1.410       .  A
C406        C411   1.495       .  S
C407        C408   1.405       .  A
C407        C910   1.410       .  A
C407        F412   1.357       .  S
C408        C409   1.409       .  A
C408        H413   1.083       .  S
C409        C914   1.414       .  A
C410        C913   1.412       .  A
C410        F414   1.358   1_455  S
C411        C420   1.409       .  A
C411        C920   1.410   1_455  A
C416        C417   1.398       .  A
C416        C915   1.409       .  A
C416        F421   1.358       .  S
C417        C922   1.407       .  A
C417        H422   1.083       .  S
C418        C419   1.406       .  A
C418        C921   1.405   1_455  A
C419        C420   1.405       .  A
C419        F423   1.357       .  S
C420        H424   1.083       .  S
C425        C426   1.408       .  A
C425        C430   1.406       .  A
C425        H435   1.083       .  S
C426        C427   1.409       .  A
C426        C431   1.504       .  S
C427        C428   1.406       .  A
C427        F432   1.357       .  S
C428        C429   1.410       .  A
C428        H433   1.083       .  S
C429        C430   1.414       .  A
C430        F434   1.358       .  S
C431        C440   1.411       .  A
C431        C940   1.410       .  A
C436        C437   1.398       .  A
C436        C935   1.411   1_655  A
C436        F441   1.357       .  S
C437        C942   1.401   1_655  A
C437        H442   1.083       .  S
C438        C439   1.407       .  A
C438        C941   1.408       .  A
C439        C440   1.408       .  A
C439        F443   1.356       .  S
C440        H444   1.083       .  S
C445        C446   1.402       .  A
C445        C450   1.385       .  A
C445        H455   1.084       .  S
C446        C447   1.389       .  A
C446        C451   1.440       .  S
C447        C448   1.381       .  A
C447        F452   1.357       .  S
C448        C449   1.412       .  A
C448        H453   1.081       .  S
C449        C450   1.404       .  A
C450        F454   1.355       .  S
C451        C456   1.405   1_565  A
C451        C460   1.388       .  A
C456        C457   1.378       .  A
C456        F461   1.359       .  S
C457        C458   1.394   1_545  A
C457        H462   1.082       .  S
C458        C459   1.417       .  A
C459        C460   1.386       .  A
C459        F463   1.358       .  S
C460        H464   1.083       .  S
C465        C466   1.400       .  A
C465        C470   1.390       .  A
C465        H475   1.083       .  S
C466        C467   1.395   1_545  A
C466        C471   1.445       .  S
C467        C468   1.379       .  A
C467        F472   1.358       .  S
C468        C469   1.406   1_565  A
C468        H473   1.083       .  S
C469        C470   1.404       .  A
C470        F474   1.354       .  S
C471        C476   1.390       .  A
C471        C480   1.402   1_545  A
C476        C477   1.379       .  A
C476        F481   1.357       .  S
C477        C478   1.410   1_545  A
C477        H482   1.083       .  S
C478        C479   1.405       .  A
C479        C480   1.385       .  A
C479        F483   1.355       .  S
C480        H484   1.084       .  S
C485        C486   1.403       .  A
C485        C490   1.399       .  A
C485        H495   1.084       .  S
C486        C487   1.409   1_565  A
C486        C491   1.493       .  S
C487        C488   1.412   1_545  A
C487        F996   1.357       .  S
C488        C489   1.408       .  A
C488        H997   1.083   1_565  S
C489        C490   1.410       .  A
C490        F494   1.357       .  S
C491        C496   1.410       .  A
C491       C1004   1.402       .  A
F492        C991   1.357       .  S
H493        C992   1.082       .  S
C496        C497   1.412       .  A
C496        F501   1.357       .  S
C497        C498   1.409       .  A
C497        H502   1.082       .  S
C498        C499   1.409       .  A
C499       C1004   1.396       .  A
C499       F1007   1.357   1_565  S
C500        C995   1.409   1_545  A
C500       C1003   1.405       .  A
C500        H504   1.083       .  S
F503       C1003   1.357       .  S
C505        C507   1.536       .  S
C505        C509   1.563       .  S
C505        C508   1.551   1_565  S
C505        C982   1.500       .  S
C506        C510   1.559       .  S
C506        C512   1.541   1_545  S
C506        C511   1.520       .  S
C506        C962   1.494       .  S
C507        C515   1.374       .  A
C508        C519   1.394       .  A
C509        C523   1.410       .  A
C510        C513   1.397   1_545  A
C511        C517   1.377       .  A
C512        C520   1.375       .  A
C513        N514   1.367       .  A
C513        H526   1.079       .  S
N514        C993   1.455       .  S
C515        H516   1.083       .  S
C517        N518   1.358   1_655  A
C517        H527   1.083       .  S
N518        C942   1.443       .  S
C519        H525   1.082       .  S
C520        H522   1.082       .  S
N521        C523   1.362       .  A
N521        C922   1.443       .  S
C523        H524   1.081       .  S
C528        C530   1.549       .  S
C528        C532   1.520       .  S
C528        C531   1.552   1_565  S
C528        C953   1.493       .  S
C529        C533   1.535       .  S
C529        C535   1.548   1_545  S
C529        C534   1.558       .  S
C529        C973   1.501       .  S
C530        C538   1.397       .  A
C530        C533   1.382   1_565  A
C531        C542   1.385       .  A
C531        C534   1.396       .  A
C532        C546   1.373       .  A
C532        C535   1.372       .  A
C533        C536   1.376       .  A
C534        C540   1.396       .  A
C535        C543   1.392       .  A
C536        N537   1.355       .  A
C536        H549   1.083       .  S
N537        C538   1.366   1_545  A
N537        C902   1.448       .  S
C538        H539   1.082       .  S
C540        N541   1.359       .  A
C540        H550   1.078       .  S
N541        C542   1.352       .  A
N541        C873   1.445       .  S
C542        H548   1.081       .  S
C543        N544   1.366       .  A
C543        H545   1.082       .  S
N544        C546   1.357       .  A
N544        C853   1.450       .  S
C546        H547   1.081       .  S
C551        C553   1.547       .  S
C551        C555   1.545   1_565  S
C551        C554   1.545       .  S
C552        C556   1.545       .  S
C552        C558   1.514       .  S
C552        C557   1.543   1_545  S
C552        C813   1.496       .  S
C553        C561   1.381       .  A
C553        C556   1.390   1_565  A
C554        C565   1.383       .  A
C554        C557   1.389       .  A
C555        C569   1.393       .  A
C555        C558   1.375       .  A
C556        C559   1.389       .  A
C557        C563   1.380       .  A
C558        C566   1.368       .  A
C559        N560   1.360   1_545  A
C559        H572   1.082       .  S
N560        C561   1.354       .  A
N560       C1002   1.440       .  S
C563        N564   1.360       .  A
C563        H573   1.082       .  S
N564        C565   1.361       .  A
N564        C782   1.449       .  S
C566        N567   1.351       .  A
C566        H568   1.083       .  S
N567        C569   1.366       .  A
N567        C802   1.441       .  S
C574        C576   1.551       .  S
C574        C578   1.541       .  S
C574        C577   1.553   1_545  S
C574        C822   1.510       .  S
C575        C579   1.521       .  S
C575        C581   1.558       .  S
C575        C580   1.542   1_545  S
C575        C842   1.502       .  S
C576        C584   1.398       .  A
C576        C579   1.378       .  A
C577        C588   1.394       .  A
C577        C580   1.391       .  A
C578        C592   1.373       .  A
C578        C581   1.390       .  A
C579        C582   1.373       .  A
C580        C586   1.379       .  A
C581        C589   1.403       .  A
C582        N583   1.351       .  A
C582        H595   1.083       .  S
N583        C584   1.368       .  A
N583        C893   1.444       .  S
C584        H585   1.082       .  S
C586        N587   1.354       .  A
C586        H596   1.082       .  S
N587        C588   1.363       .  A
N587        C733   1.449       .  S
C588        H594   1.079       .  S
C589        N590   1.364       .  A
C589        H591   1.078       .  S
N590        C592   1.345       .  A
N590        C762   1.439       .  S
C592        H593   1.082       .  S
Zr597       O598   2.439       .  S
Zr597       O599   2.448   1_554  S
Zr597       O600   2.569       .  S
Zr597       O603   2.457       .  S
Zr597       O605   2.379   1_554  S
Zr597       O606   2.419   1_554  S
Zr597       O607   2.402       .  S
Zr597       O608   2.434       .  S
O598        H654   0.990       .  S
O598        H662   0.990       .  S
O599        C619   1.287       .  A
O600        C621   1.309       .  A
O601       Zr611   2.462       .  S
O602       Zr610   2.546       .  S
O602        C621   1.306       .  A
O603        C620   1.292       .  A
O604       Zr612   2.400       .  S
O604        C619   1.279       .  A
O605       Zr610   2.393   1_556  S
O605       Zr612   2.394       .  S
O606       Zr612   2.377       .  S
O606        H641   0.964   1_655  S
O607       Zr610   2.390       .  S
O607       Zr627   2.414       .  S
O607        H644   0.969       .  S
O608       Zr627   2.391       .  S
Zr609       O634   2.440       .  S
Zr609       O628   2.460   1_556  S
Zr609       O636   2.544       .  S
Zr609       O615   2.406       .  S
Zr609       O618   2.375   1_556  S
Zr610       O629   2.437       .  S
Zr610       O622   2.435   1_554  S
Zr610       O623   2.455   1_554  S
Zr610       O616   2.430   1_554  S
Zr610       O617   2.424       .  S
Zr611       O613   2.434       .  S
Zr611       O635   2.436   1_554  S
Zr611       O637   2.545       .  S
Zr611       O615   2.393   1_554  S
Zr611       O618   2.386       .  S
Zr612       O614   2.438       .  S
Zr612       O616   2.371       .  S
O613        H650   0.990       .  S
O614        H645   0.990       .  S
O614        H659   0.990       .  S
O616        H642   0.964       .  S
O617       Zr627   2.366       .  S
O618        H643   0.964       .  S
C619        C793   1.475       .  S
C620        C933   1.505       .  S
C621        C706   1.588       .  S
O622        H658   0.990       .  S
O623        C625   1.292       .  A
O624        C625   1.289       .  A
C625        C773   1.480       .  S
O626       Zr627   2.439       .  S
O626        H655   0.990       .  S
Zr627       O630   2.436       .  S
Zr627       O631   2.437       .  S
Zr627       O632   2.431       .  S
O629        H646   0.990       .  S
O629        H661   0.990       .  S
O630        H647   0.990       .  S
O631        H651   0.990   1_655  S
O631        H660   0.990       .  S
O632        C633   1.284   1_655  A
C633        C913   1.493       .  S
O634        H653   0.990       .  S
O634        H657   0.990       .  S
O635        H649   0.990       .  S
O635        H656   0.990   1_556  S
O636        C640   1.305   1_556  A
O637        C640   1.306       .  A
O638        H648   0.990       .  S
O639        H652   0.990       .  S
C640        C687   1.577       .  S
Zr663       O664   2.437       .  S
Zr663       O665   2.433   1_554  S
Zr663       O666   2.530       .  S
Zr663       O669   2.433       .  S
Zr663       O671   2.374   1_554  S
Zr663       O672   2.416   1_554  S
Zr663       O673   2.401       .  S
Zr663       O674   2.424       .  S
O664        H720   0.990       .  S
O664        H728   0.990       .  S
O665        C685   1.285       .  A
O666        C687   1.303       .  A
O667       Zr677   2.472       .  S
O667        C686   1.295       .  A
O668       Zr676   2.562       .  S
O668        C687   1.310   1_556  A
O669        C686   1.288       .  A
O670       Zr678   2.463       .  S
O670        C685   1.290       .  A
O671       Zr676   2.388       .  S
O671       Zr678   2.384       .  S
O672       Zr677   2.427   1_556  S
O672       Zr678   2.366       .  S
O672        H707   0.966       .  S
O673       Zr676   2.397   1_554  S
O673       Zr693   2.413       .  S
O673        H710   0.969       .  S
O674       Zr677   2.417       .  S
O674       Zr693   2.379       .  S
Zr675       O700   2.441       .  S
Zr675       O694   2.463   1_556  S
Zr675       O702   2.545   1_556  S
Zr675       O690   2.427       .  S
Zr675       O681   2.407       .  S
Zr675       O682   2.445       .  S
Zr675       O683   2.407   1_556  S
Zr675       O684   2.377   1_556  S
Zr676       O695   2.436   1_556  S
Zr676       O688   2.435       .  S
Zr676       O689   2.479       .  S
Zr676       O682   2.425       .  S
Zr676       O683   2.420   1_556  S
Zr677       O679   2.434       .  S
Zr677       O701   2.434       .  S
Zr677       O703   2.565       .  S
Zr677       O681   2.386   1_554  S
Zr677       O684   2.393       .  S
Zr678       O704   2.434       .  S
Zr678       O705   2.435       .  S
Zr678       O680   2.437       .  S
Zr678       O681   2.420       .  S
Zr678       O682   2.403       .  S
O679        H716   0.990       .  S
O680        H711   0.990       .  S
O680        H725   0.990       .  S
O682        H708   0.967       .  S
O683       Zr693   2.370       .  S
O684       Zr693   2.393       .  S
O684        H709   0.969       .  S
C685        C753   1.503       .  S
C686        C882   1.496       .  S
O688        H724   0.990       .  S
O689        C691   1.296       .  A
O690        C691   1.285       .  A
C691        C742   1.501       .  S
O692       Zr693   2.438       .  S
O692        H721   0.991       .  S
Zr693       O696   2.435       .  S
Zr693       O697   2.439       .  S
Zr693       O698   2.420       .  S
O694        C699   1.290       .  A
O695        H712   0.990       .  S
O695        H727   0.990       .  S
O696        H713   0.990       .  S
O697        H717   0.990       .  S
O697        H726   0.990       .  S
O698        C699   1.282       .  A
C699        C862   1.488       .  S
O700        H719   0.990       .  S
O700        H723   0.990       .  S
O701        H715   0.990   1_554  S
O701        H722   0.990       .  S
O702        C706   1.306       .  A
O703        C706   1.310       .  A
O704        H714   0.990       .  S
O705        H718   0.990       .  S
C729        C730   1.407       .  A
C729        C734   1.402       .  A
C729        H739   1.083       .  S
C730        C731   1.412       .  A
C730        C735   1.501       .  S
C731        C732   1.404       .  A
C731        F736   1.357       .  S
C732        C733   1.405       .  A
C732        H737   1.082       .  S
C733        C734   1.411       .  A
C734        F738   1.357       .  S
C735        C740   1.411       .  A
C735        C744   1.406       .  A
C740        C741   1.404       .  A
C740        F745   1.357       .  S
C741        C742   1.407       .  A
C741        H746   1.083       .  S
C742        C743   1.417       .  A
C743        C744   1.403       .  A
C743        F747   1.358       .  S
C744        H748   1.083       .  S
C749        C750   1.408       .  A
C749        C754   1.404       .  A
C749        H759   1.083       .  S
C750        C751   1.409       .  A
C750        C755   1.501       .  S
C751        C752   1.405       .  A
C751        F756   1.358       .  S
C752        C753   1.412       .  A
C752        H757   1.083       .  S
C753        C754   1.411       .  A
C754        F758   1.357       .  S
C755        C760   1.412       .  A
C755        C764   1.408       .  A
C760        C761   1.404       .  A
C760        F765   1.357       .  S
C761        C762   1.403       .  A
C761        H766   1.083       .  S
C762        C763   1.405       .  A
C763        C764   1.403       .  A
C763        F767   1.357       .  S
C764        H768   1.083       .  S
C769        C770   1.402       .  A
C769        C774   1.399       .  A
C769        H779   1.083       .  S
C770        C771   1.404       .  A
C770        C775   1.477       .  S
C771        C772   1.401       .  A
C771        F776   1.357       .  S
C772        C773   1.406       .  A
C772        H777   1.083       .  S
C773        C774   1.408       .  A
C774        F778   1.358       .  S
C775        C780   1.400       .  A
C775        C784   1.401       .  A
C780        C781   1.398       .  A
C780        F785   1.358       .  S
C781        C782   1.410       .  A
C781        H786   1.082       .  S
C782        C783   1.413       .  A
C783        C784   1.402       .  A
C789        C790   1.407       .  A
C789        C794   1.401       .  A
C789        H799   1.083       .  S
C790        C791   1.403       .  A
C790        C795   1.480       .  S
C791        C792   1.394       .  A
C791        F796   1.357   1_655  S
C792        C793   1.407       .  A
C792        H797   1.084   1_655  S
C793        C794   1.405       .  A
C794        F798   1.358       .  S
C795        C800   1.408       .  A
C795        C804   1.401       .  A
C800        C801   1.403       .  A
C800        F805   1.357   1_655  S
C801        C802   1.404       .  A
C801        H806   1.082   1_655  S
C802        C803   1.410       .  A
C803        C804   1.395       .  A
C803        F807   1.357       .  S
C804        H808   1.084       .  S
C809        C810   1.404       .  A
C809        C814   1.382       .  A
C809        H819   1.082       .  S
C810        C811   1.400       .  A
C810        C815   1.462       .  S
C811        C812   1.388       .  A
C811        F816   1.358       .  S
C812        C813   1.409       .  A
C812        H817   1.080       .  S
C813        C814   1.404       .  A
C814        F818   1.357       .  S
C815        C820   1.396       .  A
C815        C824   1.408       .  A
C820        C821   1.382       .  A
C820        F825   1.358       .  S
C821        C822   1.410       .  A
C821        H826   1.083       .  S
C822        C823   1.402       .  A
C823        C824   1.389       .  A
C823        F827   1.352   1_545  S
C824        H828   1.083   1_545  S
C829        C830   1.396       .  A
C829        C834   1.385       .  A
C829        H839   1.084       .  S
C830        C831   1.390       .  A
C830        C835   1.441       .  S
C831        C832   1.383       .  A
C831        F836   1.358       .  S
C832        C833   1.411       .  A
C832        H837   1.075       .  S
C833        C834   1.409       .  A
C834        F838   1.357       .  S
C835        C840   1.402   1_565  A
C835        C844   1.387       .  A
C840        C841   1.386       .  A
C840        F845   1.359       .  S
C841        C842   1.398       .  A
C841        H846   1.073       .  S
C842        C843   1.418   1_545  A
C843        C844   1.383       .  A
C843        F847   1.358       .  S
C844        H848   1.084       .  S
C849        C850   1.402       .  A
C849        C854   1.400       .  A
C849        H859   1.083       .  S
C850        C851   1.412       .  A
C850        C855   1.495       .  S
C851        C852   1.405       .  A
C851        F856   1.357       .  S
C852        C853   1.406       .  A
C852        H857   1.083       .  S
C853        C854   1.414       .  A
C854        F858   1.356       .  S
C855        C860   1.412       .  A
C855        C864   1.404       .  A
C860        C861   1.408       .  A
C860        F865   1.357       .  S
C861        C862   1.406       .  A
C861        H866   1.083       .  S
C862        C863   1.409       .  A
C863        C864   1.399       .  A
C863        F867   1.357       .  S
C864        H868   1.083       .  S
C869        C870   1.407       .  A
C869        C874   1.404       .  A
C869        H879   1.083       .  S
C870        C871   1.411       .  A
C870        C875   1.497       .  S
C871        C872   1.406       .  A
C871        F876   1.357       .  S
C872        C873   1.404       .  A
C872        H877   1.083       .  S
C873        C874   1.407       .  A
C874        F878   1.357       .  S
C875        C880   1.410       .  A
C875        C884   1.404       .  A
C880        C881   1.407       .  A
C880        F885   1.357       .  S
C881        C882   1.407       .  A
C881        H886   1.083       .  S
C882        C883   1.413       .  A
C883        C884   1.402       .  A
C883        F887   1.357       .  S
C884        H888   1.083       .  S
C889        C890   1.409   1_565  A
C889        C894   1.404       .  A
C889        H899   1.082       .  S
C890        C891   1.416       .  A
C890        C895   1.509       .  S
C891        C892   1.408       .  A
C891        F896   1.357       .  S
C892        C893   1.402       .  A
C892        H897   1.083       .  S
C893        C894   1.407   1_545  A
C894        F898   1.357       .  S
C895        C900   1.416   1_545  A
C895        C904   1.409       .  A
C900        C901   1.410       .  A
C900        F905   1.357       .  S
C901        C902   1.404   1_565  A
C901        H906   1.083       .  S
C902        C903   1.407       .  A
C903        C904   1.402       .  A
C903        F907   1.357       .  S
C904        H908   1.082       .  S
C909        C910   1.405       .  A
C909        C914   1.403       .  A
C909        H919   1.083       .  S
C910        C915   1.499       .  S
C911        C912   1.403       .  A
C911        F916   1.357       .  S
C912        C913   1.407       .  A
C912        H917   1.083       .  S
C914        F918   1.357       .  S
C915        C924   1.411       .  A
C920        C921   1.398       .  A
C920        F925   1.357       .  S
C921        H926   1.083       .  S
C922        C923   1.405       .  A
C923        C924   1.408       .  A
C923        F927   1.356       .  S
C924        H928   1.083       .  S
C929        C930   1.407   1_655  A
C929        C934   1.401       .  A
C929        H939   1.083       .  S
C930        C931   1.409       .  A
C930        C935   1.503       .  S
C931        C932   1.408       .  A
C931        F936   1.357       .  S
C932        C933   1.412   1_455  A
C932        H937   1.083       .  S
C933        C934   1.413       .  A
C934        F938   1.357       .  S
C935        C944   1.411       .  A
C940        C941   1.403       .  A
C940        F945   1.358       .  S
C941        H946   1.083       .  S
C942        C943   1.408       .  A
C943        C944   1.409       .  A
C943        F947   1.357       .  S
C944        H948   1.082       .  S
C949        C950   1.402       .  A
C949        C954   1.386       .  A
C949        H959   1.084       .  S
C950        C951   1.394       .  A
C950        C955   1.446       .  S
C951        C952   1.382       .  A
C951        F956   1.357   1_565  S
C952        C953   1.407       .  A
C952        H957   1.079   1_565  S
C953        C954   1.404       .  A
C954        F958   1.357       .  S
C955        C960   1.409   1_565  A
C955        C964   1.391       .  A
C960        C961   1.380       .  A
C960        F965   1.359       .  S
C961        C962   1.391       .  A
C961        H966   1.077       .  S
C962        C963   1.416       .  A
C963        C964   1.385   1_545  A
C963        F967   1.358       .  S
C964        H968   1.083       .  S
C969        C970   1.401       .  A
C969        C974   1.388       .  A
C969        H979   1.083       .  S
C970        C971   1.395   1_545  A
C970        C975   1.452       .  S
C971        C972   1.382       .  A
C971        F976   1.358       .  S
C972        C973   1.410   1_565  A
C972        H977   1.084       .  S
C973        C974   1.403       .  A
C974        F978   1.350       .  S
C975        C980   1.391       .  A
C975        C984   1.407   1_545  A
C980        C981   1.381       .  A
C980        F985   1.358       .  S
C981        C982   1.413   1_545  A
C981        H986   1.084       .  S
C982        C983   1.401       .  A
C983        C984   1.387       .  A
C983        F987   1.353       .  S
C984        H988   1.084       .  S
C989        C990   1.405       .  A
C989        C994   1.400       .  A
C989        H999   1.083       .  S
C990        C991   1.408   1_565  A
C990        C995   1.497       .  S
C991        C992   1.407       .  A
C992        C993   1.410   1_545  A
C993        C994   1.414       .  A
C994        F998   1.356   1_655  S
C995       C1000   1.410       .  A
C1000      C1001   1.402       .  A
C1000      F1005   1.357       .  S
C1001      C1002   1.403       .  A
C1001      H1006   1.083       .  S
C1002      C1003   1.405   1_565  A
C1004      H1008   1.084   1_565  S
