geometry optimzed in LAMMPS
_audit_creation_date              2020-11-30 
_audit_creation_method            'lammps2cif' 
_symmetry_space_group_name_H-M    'P1' 
_symmetry_Int_Tables_number       1 
_symmetry_cell_setting            triclinic 
loop_ 
_symmetry_equiv_pos_as_xyz 
  x,y,z 
_cell_length_a                    36.909650716161885 
_cell_length_b                    32.17355747458508 
_cell_length_c                    48.32180748645299 
_cell_angle_alpha                 90.01381531724162 
_cell_angle_beta                  101.87677464114896 
_cell_angle_gamma                 90.07470221994234 
loop_ 
_atom_site_label 
_atom_site_type_symbol 
_atom_site_fract_x 
_atom_site_fract_y 
_atom_site_fract_z 
_atom_site_charge 
In1        In  0.25085916  0.20424297  0.37560306     1.36870
C2          C  0.21111333  0.26227449  0.34398357     0.77650
O3          O  0.26270539  0.24276753  0.41516722    -0.60800
O4          O  0.30099987  0.24514663  0.38818883    -0.51710
C5          C  0.22367042  0.14994140  0.40707548     0.70320
O6          O  0.20328036  0.17239109  0.38880378    -0.46560
C7          C  0.27825473  0.15218150  0.34285974     0.75020
O8          O  0.20322207  0.24852363  0.36638454    -0.58420
O9          O  0.29831377  0.17756479  0.35918842    -0.48520
O10         O  0.23660026  0.24282929  0.33591898    -0.54860
C11         C  0.29103128  0.25984811  0.40961131     0.85200
O12         O  0.25804675  0.15475326  0.40876229    -0.56750
O13         O  0.24424553  0.15314709  0.34354409    -0.60040
In14       In  0.34833069  0.99940562  0.22252403     1.36870
C15         C  0.33464542  0.92023914  0.20871178     0.77650
O16         O  0.29268768  0.01601549  0.19703089    -0.60800
O17         O  0.33961926  0.03055794  0.17985650    -0.51710
C18         C  0.33079567  0.04646803  0.26300155     0.70320
O19         O  0.32240512  0.00838792  0.26020937    -0.46560
C20         C  0.42135269  0.99316310  0.23831309     0.75020
O21         O  0.32369545  0.93698777  0.22921538    -0.58420
O22         O  0.40596818  0.01828706  0.21939420    -0.48520
O23         O  0.35250045  0.94414323  0.19573849    -0.54860
C24         C  0.30472582  0.03005719  0.17630601     0.85200
O25         O  0.34905377  0.05988241  0.24547186    -0.56750
O26         O  0.39921864  0.97304876  0.24994891    -0.60040
In27       In  0.15416365  0.99823350  0.02771747     1.36870
C28         C  0.16774138  0.92073896  0.04529234     0.77650
O29         O  0.21102248  0.01386794  0.05122752    -0.60800
O30         O  0.16578548  0.03472388  0.06844958    -0.51710
C31         C  0.17167680  0.04163491  0.48573741     0.70320
O32         O  0.18212164  0.00457532  0.49099059    -0.46560
C33         C  0.08090840  0.99210918  0.01423673     0.75020
O34         O  0.17339496  0.93283522  0.02161806    -0.58420
O35         O  0.09738715  0.01658123  0.03321453    -0.48520
O36         O  0.15448808  0.94805524  0.05899345    -0.54860
C37         C  0.20053610  0.03133574  0.07156425     0.85200
O38         O  0.15109140  0.05578265  0.00139787    -0.56750
O39         O  0.10208825  0.97243169  0.50146620    -0.60040
In40       In  0.74881572  0.75139086  0.12596556     1.36870
C41         C  0.71027579  0.69972289  0.08817375     0.77650
O42         O  0.75024977  0.80922411  0.10062909    -0.60800
O43         O  0.79784110  0.77044935  0.10774629    -0.51710
C44         C  0.72357741  0.80297374  0.16027410     0.70320
O45         O  0.70512717  0.79395122  0.13597678    -0.46560
C46         C  0.77828898  0.69125438  0.16106021     0.75020
O47         O  0.69600753  0.71854400  0.10620356    -0.58420
O48         O  0.79816194  0.71766196  0.15163077    -0.48520
O49         O  0.74286864  0.71074014  0.08773288    -0.54860
C50         C  0.78224849  0.80280571  0.09621048     0.85200
O51         O  0.75505687  0.78610502  0.16667234    -0.56750
O52         O  0.74397517  0.69732790  0.15348438    -0.60040
In53       In  0.65234524  0.95705371  0.27908051     1.36870
C54         C  0.66726244  0.03610452  0.29220916     0.77650
O55         O  0.60065308  0.98140261  0.25191112    -0.60800
O56         O  0.59514096  0.93753314  0.28361430    -0.51710
C57         C  0.67038958  0.90860473  0.23966173     0.70320
O58         O  0.66978680  0.94773502  0.23756306    -0.46560
C59         C  0.69768980  0.92992830  0.32546594     0.75020
O60         O  0.67972137  0.01795937  0.27288808    -0.58420
O61         O  0.66284565  0.92701954  0.32214202    -0.48520
O62         O  0.64689719  0.01377866  0.30410302    -0.54860
C63         C  0.57910943  0.96181880  0.26436721     0.85200
O64         O  0.66025839  0.89452953  0.26121680    -0.56750
O65         O  0.70878026  0.94481961  0.30452875    -0.60040
In66       In  0.84910094  0.95853743  0.47612174     1.36870
C67         C  0.83509360  0.03812671  0.46375340     0.77650
O68         O  0.90158063  0.98145218  0.00337285    -0.60800
O69         O  0.90557930  0.94097168  0.46942180    -0.51710
C70         C  0.83433754  0.91118691  0.01756603     0.70320
O71         O  0.82846046  0.94986324  0.01621065    -0.46560
C72         C  0.80300443  0.92978134  0.43033291     0.75020
O73         O  0.82241891  0.01973699  0.48286145    -0.58420
O74         O  0.83777452  0.92749884  0.43332449    -0.48520
O75         O  0.85516051  0.01583330  0.45164476    -0.54860
C76         C  0.92243176  0.96338831  0.48951331     0.85200
O77         O  0.84866168  0.89702916  0.49792925    -0.56750
O78         O  0.79227538  0.94438526  0.45146348    -0.60040
In79       In  0.75088591  0.25144871  0.37719257     1.36870
C80         C  0.78455537  0.19496831  0.41371133     0.77650
O81         O  0.75764988  0.30041199  0.41050580    -0.60800
O82         O  0.70298974  0.28437447  0.38974290    -0.51710
C83         C  0.77758059  0.30178791  0.34274234     0.70320
O84         O  0.79725922  0.28868676  0.36560819    -0.46560
C85         C  0.71661406  0.19324903  0.34269072     0.75020
O86         O  0.80126345  0.21457837  0.39741767    -0.58420
O87         O  0.69977799  0.21572417  0.35743462    -0.48520
O88         O  0.75174527  0.20662921  0.41252236    -0.54860
C89         C  0.72340938  0.30620757  0.40844449     0.85200
O90         O  0.74433334  0.28976512  0.33803925    -0.56750
O91         O  0.75020284  0.20256445  0.34444224    -0.60040
In92       In  0.84875483  0.45702080  0.22459926     1.36870
C93         C  0.82987748  0.53559214  0.21286515     0.77650
O94         O  0.90079652  0.48017694  0.25207327    -0.60800
O95         O  0.90564127  0.43927453  0.21851903    -0.51710
C96         C  0.83255190  0.40768940  0.26432766     0.70320
O97         O  0.83563569  0.44655832  0.26755275    -0.46560
C98         C  0.80501730  0.42923840  0.17755146     0.75020
O99         O  0.81495347  0.51379535  0.22919756    -0.58420
O100        O  0.83996048  0.42862753  0.18097176    -0.48520
O101        O  0.85528605  0.51764257  0.20365562    -0.54860
C102        C  0.92204217  0.46206086  0.23859593     0.85200
O103        O  0.83930894  0.39414150  0.24144580    -0.56750
O104        O  0.79316403  0.44225618  0.19863245    -0.60040
In105      In  0.65395215  0.46055487  0.02797068     1.36870
C106        C  0.66408264  0.54043667  0.04116559     0.77650
O107        O  0.60212504  0.48153572  0.49914178    -0.60800
O108        O  0.59713747  0.44422216  0.03450451    -0.51710
C109        C  0.67233908  0.41525051  0.48722261     0.70320
O110        O  0.68451927  0.45157026  0.49306827    -0.46560
C111        C  0.70019409  0.42957846  0.07282536     0.75020
O112        O  0.67276692  0.52512798  0.01932447    -0.58420
O113        O  0.66548428  0.42525911  0.06932190    -0.48520
O114        O  0.65029274  0.51477379  0.05575356    -0.54860
C115        C  0.58083727  0.46505026  0.01336598     0.85200
O116        O  0.64964646  0.40256781  0.00166220    -0.56750
O117        O  0.71071887  0.44738295  0.05265688    -0.60040
In118      In  0.25173838  0.70345563  0.12600776     1.36870
C119        C  0.21320656  0.76094974  0.09329324     0.77650
O120        O  0.26030535  0.74415441  0.16440761    -0.60800
O121        O  0.30175132  0.74442508  0.14009222    -0.51710
C122        C  0.22441645  0.64910247  0.15747445     0.70320
O123        O  0.20404591  0.67221124  0.13966209    -0.46560
C124        C  0.27869029  0.65170946  0.09300810     0.75020
O125        O  0.20254150  0.74518781  0.11411046    -0.58420
O126        O  0.29927149  0.67161912  0.11273092    -0.48520
O127        O  0.24155106  0.74432490  0.08746541    -0.54860
C128        C  0.28975486  0.76035000  0.16029554     0.85200
O129        O  0.25871347  0.65316066  0.15861629    -0.56750
O130        O  0.24435904  0.65774664  0.09045757    -0.60040
In131      In  0.15320378  0.50019511  0.27914955     1.36870
C132        C  0.16623310  0.42200989  0.29530779     0.77650
O133        O  0.20941358  0.51680939  0.30373224    -0.60800
O134        O  0.16309385  0.53381511  0.32098431    -0.51710
C135        C  0.17118542  0.54484582  0.23781038     0.70320
O136        O  0.18196796  0.50785152  0.24291956    -0.46560
C137        C  0.08007650  0.49346549  0.26437069     0.75020
O138        O  0.17282774  0.43528203  0.27218747    -0.58420
O139        O  0.09582112  0.51893766  0.28296808    -0.48520
O140        O  0.15281894  0.44870011  0.30940203    -0.54860
C141        C  0.19796091  0.53193225  0.32441897     0.85200
O142        O  0.15046163  0.55844257  0.25353646    -0.56750
O143        O  0.10192697  0.47321303  0.25256783    -0.60040
In144      In  0.34933868  0.49781883  0.47383943     1.36870
C145        C  0.33739354  0.41847046  0.45955440     0.77650
O146        O  0.29238740  0.50970867  0.44899227    -0.60800
O147        O  0.33755352  0.53283316  0.43252687    -0.51710
C148        C  0.33155247  0.54466526  0.01425350     0.70320
O149        O  0.32634846  0.50581858  0.01299290    -0.46560
C150        C  0.42262609  0.49377084  0.48864586     0.75020
O151        O  0.32670915  0.43420396  0.48049171    -0.58420
O152        O  0.40624819  0.51369615  0.46713396    -0.48520
O153        O  0.35437302  0.44335788  0.44660002    -0.54860
C154        C  0.30287027  0.52807801  0.42895978     0.85200
O155        O  0.34684700  0.55908869  0.49519926    -0.56750
O156        O  0.40135625  0.47802018  0.00314189    -0.60040
C157        C  0.27634366  0.53996181  0.40278531    -0.05400
C158        C  0.23822569  0.53960467  0.40265906    -0.32830
C159        C  0.21198491  0.54125243  0.37723662     0.36420
C160        C  0.22371827  0.54242293  0.35128169    -0.05750
C161        C  0.26170907  0.54660358  0.35155837    -0.32720
C162        C  0.28793212  0.54589816  0.37704135     0.36330
H163        H  0.22866101  0.53567981  0.42224903     0.16700
O164        O  0.17520043  0.53740300  0.37799815    -0.60220
H165        H  0.27131498  0.54801334  0.33184509     0.16710
O166        O  0.32482297  0.54707172  0.37619625    -0.60320
H167        H  0.33165897  0.57691842  0.37791072     0.43710
H168        H  0.16619255  0.56629958  0.37887372     0.43670
C169        C  0.29358759  0.62441485  0.07378667    -0.05400
C170        C  0.29363747  0.58130047  0.07763303    -0.32830
C171        C  0.30656042  0.55482685  0.05874910     0.36420
C172        C  0.31967435  0.57158828  0.03562650    -0.05750
C173        C  0.31996701  0.61499266  0.03219928    -0.32720
C174        C  0.30685401  0.64128971  0.05099322     0.36330
H175        H  0.28348389  0.56814929  0.09524249     0.16700
O176        O  0.30671444  0.51276419  0.06335496    -0.60220
H177        H  0.32967874  0.62864032  0.01455569     0.16710
O178        O  0.30672698  0.68345851  0.04675685    -0.60320
H179        H  0.28183474  0.68980005  0.03528437     0.43710
H180        H  0.28134963  0.50325503  0.05467633     0.43670
C181        C  0.20940564  0.62077645  0.17630614    -0.05400
C182        C  0.17810543  0.63273790  0.18658206    -0.32830
C183        C  0.16521096  0.60834045  0.20653652     0.36420
C184        C  0.18293596  0.57050559  0.21578713    -0.05750
C185        C  0.21342090  0.55786002  0.20460921    -0.32720
C186        C  0.22701446  0.58296369  0.18536363     0.36330
H187        H  0.16435993  0.66187331  0.17988888     0.16700
O188        O  0.13513445  0.62169621  0.21666619    -0.60220
H189        H  0.22744358  0.52890951  0.21136161     0.16710
O190        O  0.25700003  0.56981633  0.17503156    -0.60320
H191        H  0.27893469  0.57787504  0.18961015     0.43710
H192        H  0.14527439  0.64128534  0.23219665     0.43670
C193        C  0.54022539  0.47129722  0.00649034    -0.05400
C194        C  0.51924308  0.46227957  0.02689465    -0.32830
C195        C  0.48119698  0.47047691  0.02171491     0.36420
C196        C  0.46325965  0.48761657  0.49559221    -0.05750
C197        C  0.48425467  0.49663500  0.47519521    -0.32720
C198        C  0.52229598  0.48845640  0.48038041     0.36330
H199        H  0.53246880  0.44949129  0.04720092     0.16700
O200        O  0.46190605  0.46154093  0.04239773    -0.60220
H201        H  0.47104232  0.50940639  0.45488095     0.16710
O202        O  0.54158208  0.49734216  0.45968609    -0.60320
H203        H  0.54094234  0.47133827  0.44856554     0.43710
H204        H  0.46267472  0.48746877  0.05361301     0.43670
C205        C  0.96263535  0.46888104  0.24536931    -0.05400
C206        C  0.97729728  0.50051953  0.26452363    -0.32830
C207        C  0.01521503  0.50951764  0.27048410     0.36420
C208        C  0.03950145  0.48643437  0.25745247    -0.05750
C209        C  0.02485890  0.45472640  0.23832325    -0.32720
C210        C  0.98688139  0.44581390  0.23229815     0.36330
H211        H  0.95922662  0.51887811  0.27473963     0.16700
O212        O  0.02814274  0.54068678  0.28931369    -0.60220
H213        H  0.04295599  0.43637139  0.22813165     0.16710
O214        O  0.97387794  0.41461508  0.21351691    -0.60320
H215        H  0.97493678  0.38911311  0.22518165     0.43710
H216        H  0.02667968  0.56630375  0.27772436     0.43670
C217        C  0.77935525  0.41859784  0.15066117    -0.05400
C218        C  0.74138101  0.41414453  0.15043569    -0.32830
C219        C  0.71517808  0.41356291  0.12496203     0.36420
C220        C  0.72674336  0.41832953  0.09912656    -0.05750
C221        C  0.76488966  0.41881186  0.09926729    -0.32720
C222        C  0.79113407  0.41852993  0.12473047     0.36330
H223        H  0.73171916  0.41341082  0.17014093     0.16700
O224        O  0.67829287  0.41232999  0.12582432    -0.60220
H225        H  0.77444330  0.42182872  0.07960695     0.16710
O226        O  0.82792436  0.42211666  0.12393209    -0.60320
H227        H  0.83700036  0.39313663  0.12379047     0.43710
H228        H  0.67168509  0.38240418  0.12473732     0.43670
C229        C  0.70895227  0.33567804  0.42704441    -0.05400
C230        C  0.73337125  0.36432082  0.44309196    -0.32830
C231        C  0.72139643  0.39115822  0.46211142     0.36420
C232        C  0.68460626  0.38916189  0.46581410    -0.05750
C233        C  0.66001082  0.36079178  0.44972417    -0.32720
C234        C  0.67181383  0.33441759  0.43023768     0.36330
H235        H  0.76207065  0.36570035  0.44113625     0.16700
O236        O  0.74649422  0.41744770  0.47824818    -0.60220
H237        H  0.63157763  0.35901118  0.45231502     0.16710
O238        O  0.64697495  0.30714065  0.41484472    -0.60320
H239        H  0.64847664  0.28174742  0.42665511     0.43710
H240        H  0.74709474  0.44242489  0.46633111     0.43670
C241        C  0.79220108  0.32858623  0.32276658    -0.05400
C242        C  0.82111413  0.35668651  0.33277406    -0.32830
C243        C  0.83462508  0.38288772  0.31399075     0.36420
C244        C  0.81991509  0.38024245  0.28478038    -0.05750
C245        C  0.79177115  0.35144878  0.27474611    -0.32720
C246        C  0.77739653  0.32631684  0.29349597     0.36330
H247        H  0.83277842  0.35884148  0.35521631     0.16700
O248        O  0.86235352  0.41063194  0.32432131    -0.60220
H249        H  0.78021199  0.34916934  0.25228079     0.16710
O250        O  0.74966264  0.29868707  0.28289099    -0.60320
H251        H  0.72644208  0.31503249  0.28030246     0.43710
H252        H  0.88567074  0.39585137  0.32349346     0.43670
C253        C  0.82591191  0.08155364  0.45507563    -0.05400
C254        C  0.79412333  0.10004956  0.46124951    -0.32830
C255        C  0.78132039  0.13824059  0.44917475     0.36420
C256        C  0.80082964  0.15898263  0.43097928    -0.05750
C257        C  0.83418468  0.14193075  0.42662878    -0.32720
C258        C  0.84673366  0.10357946  0.43845231     0.36330
H259        H  0.77795751  0.08385174  0.47422501     0.16700
O260        O  0.74912589  0.15432369  0.45467915    -0.60220
H261        H  0.84974745  0.15733711  0.41287539     0.16710
O262        O  0.87863109  0.08719892  0.43262285    -0.60320
H263        H  0.89849107  0.09548571  0.44880830     0.43710
H264        H  0.72892637  0.13956303  0.44163399     0.43670
C265        C  0.67647301  0.07941053  0.30133003    -0.05400
C266        C  0.65756810  0.09808342  0.32053202    -0.32830
C267        C  0.66869983  0.13665520  0.33272592     0.36420
C268        C  0.69961578  0.15704074  0.32611082    -0.05750
C269        C  0.71722469  0.13952058  0.30571987    -0.32720
C270        C  0.70565597  0.10124341  0.29313498     0.36330
H271        H  0.63481400  0.08205720  0.32696230     0.16700
O272        O  0.65100784  0.15236220  0.35276898    -0.60220
H273        H  0.74093888  0.15483906  0.30022463     0.16710
O274        O  0.72468703  0.08434802  0.27431145    -0.60320
H275        H  0.71190492  0.09477163  0.25552423     0.43710
H276        H  0.63021505  0.16904826  0.34204374     0.43670
C277        C  0.72388803  0.91976010  0.35217624    -0.05400
C278        C  0.76196434  0.91776301  0.35228770    -0.32830
C279        C  0.78822646  0.91723943  0.37772333     0.36420
C280        C  0.77660849  0.91956873  0.40369233    -0.05750
C281        C  0.73850196  0.91793237  0.40358382    -0.32720
C282        C  0.71222493  0.91757684  0.37812683     0.36330
H283        H  0.77156756  0.91875591  0.33256282     0.16700
O284        O  0.82509386  0.91821661  0.37678242    -0.60220
H285        H  0.72892039  0.91911070  0.42331139     0.16710
O286        O  0.67535353  0.91883497  0.37902249    -0.60320
H287        H  0.66745621  0.88933392  0.37867713     0.43710
H288        H  0.83274082  0.88865787  0.37707251     0.43670
C289        C  0.82413663  0.88425328  0.03969647    -0.05400
C290        C  0.83107021  0.84127880  0.03944799    -0.32830
C291        C  0.81878052  0.81453738  0.05848708     0.36420
C292        C  0.79917157  0.83059190  0.07817137    -0.05750
C293        C  0.79305765  0.87351890  0.07898806    -0.32720
C294        C  0.80559338  0.90035097  0.06015713     0.36330
H295        H  0.84520166  0.82812016  0.02394602     0.16700
O296        O  0.82456563  0.77258540  0.05677929    -0.60220
H297        H  0.77808240  0.88628477  0.09410825     0.16710
O298        O  0.79920034  0.94216915  0.06183182    -0.60320
H299        H  0.77383666  0.94655547  0.05055677     0.43710
H300        H  0.80217843  0.76175465  0.04378244     0.43670
C301        C  0.70940899  0.83033378  0.18008674    -0.05400
C302        C  0.71911882  0.82198749  0.20914609    -0.32830
C303        C  0.70568266  0.84671295  0.22858341     0.36420
C304        C  0.68322635  0.88133231  0.21915951    -0.05750
C305        C  0.67398596  0.89021800  0.19013287    -0.32720
C306        C  0.68648034  0.86459718  0.17056163     0.36330
H307        H  0.73679128  0.79579816  0.21680686     0.16700
O308        O  0.71607903  0.83792640  0.25688707    -0.60220
H309        H  0.65675542  0.91679800  0.18262210     0.16710
O310        O  0.67662178  0.87368750  0.14228356    -0.60320
H311        H  0.69692526  0.89140689  0.13825125     0.43710
H312        H  0.69833270  0.81646995  0.26055058     0.43670
C313        C  0.67066656  0.58438222  0.04976670    -0.05400
C314        C  0.69480483  0.60877488  0.03758029    -0.32830
C315        C  0.70581540  0.64824265  0.04839382     0.36420
C316        C  0.69232375  0.66405934  0.07154840    -0.05750
C317        C  0.66574696  0.64118807  0.08207098    -0.32720
C318        C  0.65524941  0.60147221  0.07165322     0.36330
H319        H  0.70669430  0.59642182  0.02058307     0.16700
O320        O  0.73129683  0.67005637  0.03715784    -0.60220
H321        H  0.65500124  0.65276477  0.09984775     0.16710
O322        O  0.63062350  0.57926081  0.08357752    -0.60320
H323        H  0.64560383  0.56700959  0.10107641     0.43710
H324        H  0.71649787  0.68926240  0.02322186     0.43670
C325        C  0.79304216  0.65459798  0.17827931    -0.05400
C326        C  0.76791518  0.62659021  0.18650761    -0.32830
C327        C  0.77986819  0.58853378  0.19905567     0.36420
C328        C  0.81756807  0.57789198  0.20376346    -0.05750
C329        C  0.84300005  0.60649313  0.19673256    -0.32720
C330        C  0.83108035  0.64483712  0.18439912     0.36330
H331        H  0.73853290  0.63331668  0.18209318     0.16700
O332        O  0.75412475  0.56093989  0.20497907    -0.60220
H333        H  0.87213835  0.59867679  0.20023153     0.16710
O334        O  0.85664800  0.67147634  0.17719439    -0.60320
H335        H  0.86436402  0.68975461  0.19390456     0.43710
H336        H  0.74682710  0.54376409  0.18766592     0.43670
C337        C  0.17650084  0.87845928  0.05669951    -0.05400
C338        C  0.18583838  0.84675671  0.03940651    -0.32830
C339        C  0.19611887  0.80724917  0.05058186     0.36420
C340        C  0.19670049  0.79899547  0.07927464    -0.05750
C341        C  0.18614569  0.83013581  0.09622602    -0.32720
C342        C  0.17677637  0.86972087  0.08538642     0.36330
H343        H  0.18578332  0.85278306  0.01734231     0.16700
O344        O  0.20613916  0.77722778  0.03346596    -0.60220
H345        H  0.18733274  0.82455396  0.11852029     0.16710
O346        O  0.16935351  0.90000491  0.10342690    -0.60320
H347        H  0.19361657  0.91319838  0.11125374     0.43710
H348        H  0.18324132  0.76098487  0.02641591     0.43670
C349        C  0.96311747  0.96958652  0.49593788    -0.05400
C350        C  0.97907909  0.99642082  0.01808740    -0.32830
C351        C  0.01713866  0.00470436  0.02398895     0.36420
C352        C  0.04023820  0.98573215  0.00779887    -0.05750
C353        C  0.02430452  0.95876976  0.48571369    -0.32720
C354        C  0.98617036  0.95082311  0.47962254     0.36330
H355        H  0.96196400  0.01139154  0.03086940     0.16700
O356        O  0.03144045  0.03070850  0.04603827    -0.60220
H357        H  0.04146398  0.94364757  0.47303245     0.16710
O358        O  0.97191337  0.92436302  0.45782989    -0.60320
H359        H  0.96685351  0.94206982  0.44067003     0.43710
H360        H  0.02923885  0.05904729  0.03779560     0.43670
C361        C  0.32681760  0.87658382  0.19974056    -0.05400
C362        C  0.34428839  0.85970586  0.17905820    -0.32830
C363        C  0.33451923  0.82044085  0.16746606     0.36420
C364        C  0.30644371  0.79735167  0.17625737    -0.05750
C365        C  0.29055926  0.81315263  0.19816901    -0.32720
C366        C  0.30068143  0.85227790  0.21001276     0.36330
H367        H  0.36485890  0.87757336  0.17109802     0.16700
O368        O  0.35087931  0.80634626  0.14621667    -0.60220
H369        H  0.26897211  0.79595226  0.20534194     0.16710
O370        O  0.28305566  0.86741860  0.23025896    -0.60320
H371        H  0.29815385  0.85777101  0.24851589     0.43710
H372        H  0.37277451  0.79032795  0.15590419     0.43670
C373        C  0.53860791  0.96878306  0.25753717    -0.05400
C374        C  0.52469266  0.00437059  0.24206862    -0.32830
C375        C  0.48679597  0.01329860  0.23622741     0.36420
C376        C  0.46184640  0.98618871  0.24559079    -0.05750
C377        C  0.47575250  0.95064652  0.26114507    -0.32720
C378        C  0.51371130  0.94176313  0.26703912     0.36330
H379        H  0.54334521  0.02586543  0.23479956     0.16700
O380        O  0.47456939  0.04865833  0.22138157    -0.60220
H381        H  0.45706485  0.92916953  0.26838603     0.16710
O382        O  0.52603471  0.90648959  0.28194634    -0.60320
H383        H  0.52582721  0.88464741  0.26742531     0.43710
H384        H  0.47470019  0.07041823  0.23594649     0.43670
C385        C  0.22715388  0.04276976  0.09780773    -0.05400
C386        C  0.26529662  0.04125842  0.09807563    -0.32830
C387        C  0.29139193  0.04101972  0.12360077     0.36420
C388        C  0.27945028  0.04158976  0.14947391    -0.05750
C389        C  0.24159525  0.04715100  0.14913667    -0.32720
C390        C  0.21554731  0.04820702  0.12358921     0.36330
H391        H  0.27491141  0.03760215  0.07848628     0.16700
O392        O  0.32808372  0.03599419  0.12292094    -0.60220
H393        H  0.23186557  0.04831388  0.16880515     0.16710
O394        O  0.17867277  0.05053818  0.12433816    -0.60320
H395        H  0.17269189  0.08059850  0.12284521     0.43710
H396        H  0.33803376  0.06459879  0.12263394     0.43670
C397        C  0.20867282  0.12082202  0.42546155    -0.05400
C398        C  0.22854542  0.08476220  0.43522625    -0.32830
C399        C  0.21591849  0.05766803  0.45385367     0.36420
C400        C  0.18349160  0.06715235  0.46372596    -0.05750
C401        C  0.16342277  0.10304705  0.45368708    -0.32720
C402        C  0.17548664  0.12947766  0.43440688     0.36330
H403        H  0.25408839  0.07763660  0.42848577     0.16700
O404        O  0.23661660  0.02325751  0.46343608    -0.60220
H405        H  0.13848457  0.11094974  0.46105535     0.16710
O406        O  0.15587140  0.16501055  0.42584490    -0.60320
H407        H  0.13630753  0.15644509  0.40953876     0.43710
H408        H  0.22792300  0.00134674  0.44916486     0.43670
C409        C  0.31925697  0.07332246  0.28457363    -0.05400
C410        C  0.29596834  0.05704986  0.30157422    -0.32830
C411        C  0.28261047  0.08238232  0.32081674     0.36420
C412        C  0.29320671  0.12438256  0.32380518    -0.05750
C413        C  0.31727652  0.14048172  0.30754307    -0.32720
C414        C  0.33000853  0.11549800  0.28782937     0.36330
H415        H  0.28748385  0.02475418  0.29961267     0.16700
O416        O  0.26010006  0.06554214  0.33721319    -0.60220
H417        H  0.32532961  0.17293030  0.30950694     0.16710
O418        O  0.35201349  0.13306218  0.27132450    -0.60320
H419        H  0.37768417  0.13006592  0.28234553     0.43710
H420        H  0.23476273  0.06670701  0.32537096     0.43670
C421        C  0.19474337  0.30064069  0.33010695    -0.05400
C422        C  0.19529877  0.30836172  0.30157934    -0.32830
C423        C  0.18484528  0.34727685  0.28943015     0.36420
C424        C  0.17431019  0.37929739  0.30606267    -0.05750
C425        C  0.17275360  0.37096479  0.33431037    -0.32720
C426        C  0.18306306  0.33231301  0.34638964     0.36330
H427        H  0.20457258  0.28446050  0.28885116     0.16700
O428        O  0.18593939  0.35387766  0.26158424    -0.60220
H429        H  0.16487976  0.39506686  0.34758440     0.16710
O430        O  0.18370779  0.32676004  0.37464711    -0.60320
H431        H  0.20897000  0.33514562  0.38447986     0.43710
H432        H  0.16066150  0.34715361  0.25093998     0.43670
C433        C  0.32982974  0.37504112  0.44987026    -0.05400
C434        C  0.34304896  0.36118711  0.42620125    -0.32830
C435        C  0.33253257  0.32254967  0.41388586     0.36420
C436        C  0.30857527  0.29660162  0.42535758    -0.05750
C437        C  0.29714288  0.30934465  0.45005551    -0.32720
C438        C  0.30773277  0.34808290  0.46240086     0.36330
H439        H  0.36043813  0.38110839  0.41635336     0.16700
O440        O  0.34438152  0.31153933  0.38979087    -0.60220
H441        H  0.27867658  0.28994280  0.45922517     0.16710
O442        O  0.29463845  0.36003787  0.48575513    -0.60320
H443        H  0.31360922  0.35056520  0.00215573     0.43710
H444        H  0.32636778  0.32436074  0.37403498     0.43670
In445      In  0.25085920  0.20424300  0.87560304     1.36870
C446        C  0.21111333  0.26227452  0.84398358     0.77650
O447        O  0.26270553  0.24276747  0.91516724    -0.60800
O448        O  0.30099987  0.24514674  0.88818874    -0.51710
C449        C  0.22367045  0.14994142  0.90707545     0.70320
O450        O  0.20328039  0.17239113  0.88880376    -0.46560
C451        C  0.27825478  0.15218153  0.84285973     0.75020
O452        O  0.20322214  0.24852370  0.86638459    -0.58420
O453        O  0.29831383  0.17756481  0.85918841    -0.48520
O454        O  0.23660021  0.24282927  0.83591895    -0.54860
C455        C  0.29103135  0.25984813  0.90961128     0.85200
O456        O  0.25804679  0.15475327  0.90876226    -0.56750
O457        O  0.24424559  0.15314712  0.84354407    -0.60040
In458      In  0.34833069  0.99940561  0.72252403     1.36870
C459        C  0.33464541  0.92023913  0.70871178     0.77650
O460        O  0.29268768  0.01601548  0.69703090    -0.60800
O461        O  0.33961924  0.03055792  0.67985650    -0.51710
C462        C  0.33079571  0.04646803  0.76300155     0.70320
O463        O  0.32240516  0.00838792  0.76020938    -0.46560
C464        C  0.42135270  0.99316308  0.73831308     0.75020
O465        O  0.32369544  0.93698776  0.72921538    -0.58420
O466        O  0.40596819  0.01828703  0.71939418    -0.48520
O467        O  0.35250045  0.94414321  0.69573849    -0.54860
C468        C  0.30472581  0.03005717  0.67630602     0.85200
O469        O  0.34905379  0.05988240  0.74547184    -0.56750
O470        O  0.39921864  0.97304875  0.74994890    -0.60040
In471      In  0.15416360  0.99823349  0.52771750     1.36870
C472        C  0.16774136  0.92073895  0.54529235     0.77650
O473        O  0.21102242  0.01386795  0.55122754    -0.60800
O474        O  0.16578543  0.03472386  0.56844960    -0.51710
C475        C  0.17167684  0.04163491  0.98573737     0.70320
O476        O  0.18212169  0.00457532  0.99099056    -0.46560
C477        C  0.08090834  0.99210917  0.51423675     0.75020
O478        O  0.17339491  0.93283522  0.52161807    -0.58420
O479        O  0.09738709  0.01658120  0.53321456    -0.48520
O480        O  0.15448807  0.94805523  0.55899348    -0.54860
C481        C  0.20053605  0.03133573  0.57156427     0.85200
O482        O  0.15109136  0.05578265  0.50139790    -0.56750
O483        O  0.10208830  0.97243168  0.00146619    -0.60040
In484      In  0.74881570  0.75139085  0.62596557     1.36870
C485        C  0.71027578  0.69972288  0.58817376     0.77650
O486        O  0.75024975  0.80922410  0.60062910    -0.60800
O487        O  0.79784109  0.77044935  0.60774631    -0.51710
C488        C  0.72357741  0.80297374  0.66027412     0.70320
O489        O  0.70512716  0.79395122  0.63597680    -0.46560
C490        C  0.77828897  0.69125437  0.66106022     0.75020
O491        O  0.69600752  0.71854398  0.60620358    -0.58420
O492        O  0.79816193  0.71766196  0.65163079    -0.48520
O493        O  0.74286863  0.71074014  0.58773290    -0.54860
C494        C  0.78224847  0.80280570  0.59621049     0.85200
O495        O  0.75505686  0.78610502  0.66667235    -0.56750
O496        O  0.74397516  0.69732789  0.65348440    -0.60040
In497      In  0.65234525  0.95705372  0.77908053     1.36870
C498        C  0.66726243  0.03610453  0.79220917     0.77650
O499        O  0.60065309  0.98140260  0.75191113    -0.60800
O500        O  0.59514096  0.93753314  0.78361432    -0.51710
C501        C  0.67038959  0.90860474  0.73966176     0.70320
O502        O  0.66978682  0.94773503  0.73756308    -0.46560
C503        C  0.69768982  0.92992833  0.82546596     0.75020
O504        O  0.67972137  0.01795939  0.77288808    -0.58420
O505        O  0.66284567  0.92701957  0.82214204    -0.48520
O506        O  0.64689718  0.01377868  0.80410303    -0.54860
C507        C  0.57910944  0.96181879  0.76436721     0.85200
O508        O  0.66025840  0.89452953  0.76121682    -0.56750
O509        O  0.70878027  0.94481963  0.80452877    -0.60040
In510      In  0.84910099  0.95853746  0.97612175     1.36870
C511        C  0.83509363  0.03812674  0.96375341     0.77650
O512        O  0.90158058  0.98145212  0.50337285    -0.60800
O513        O  0.90557935  0.94097168  0.96942183    -0.51710
C514        C  0.83433750  0.91118687  0.51756602     0.70320
O515        O  0.82846041  0.94986321  0.51621063    -0.46560
C516        C  0.80300447  0.92978138  0.93033293     0.75020
O517        O  0.82241895  0.01973702  0.98286146    -0.58420
O518        O  0.83777456  0.92749890  0.93332449    -0.48520
O519        O  0.85516055  0.01583333  0.95164477    -0.54860
C520        C  0.92243180  0.96338834  0.98951332     0.85200
O521        O  0.84866172  0.89702920  0.99792926    -0.56750
O522        O  0.79227542  0.94438528  0.95146350    -0.60040
In523      In  0.75088589  0.25144872  0.87719256     1.36870
C524        C  0.78455536  0.19496832  0.91371132     0.77650
O525        O  0.75764986  0.30041200  0.91050580    -0.60800
O526        O  0.70298972  0.28437448  0.88974290    -0.51710
C527        C  0.77758056  0.30178793  0.84274234     0.70320
O528        O  0.79725920  0.28868677  0.86560818    -0.46560
C529        C  0.71661404  0.19324906  0.84269071     0.75020
O530        O  0.80126343  0.21457839  0.89741766    -0.58420
O531        O  0.69977796  0.21572419  0.85743461    -0.48520
O532        O  0.75174525  0.20662921  0.91252235    -0.54860
C533        C  0.72340936  0.30620758  0.90844449     0.85200
O534        O  0.74433332  0.28976514  0.83803925    -0.56750
O535        O  0.75020281  0.20256448  0.84444223    -0.60040
In536      In  0.84875484  0.45702079  0.72459925     1.36870
C537        C  0.82987747  0.53559213  0.71286514     0.77650
O538        O  0.90079652  0.48017694  0.75207327    -0.60800
O539        O  0.90564128  0.43927452  0.71851902    -0.51710
C540        C  0.83255190  0.40768939  0.76432765     0.70320
O541        O  0.83563569  0.44655831  0.76755274    -0.46560
C542        C  0.80501731  0.42923838  0.67755145     0.75020
O543        O  0.81495346  0.51379533  0.72919755    -0.58420
O544        O  0.83996050  0.42862752  0.68097175    -0.48520
O545        O  0.85528605  0.51764256  0.70365562    -0.54860
C546        C  0.92204218  0.46206086  0.73859592     0.85200
O547        O  0.83930895  0.39414149  0.74144579    -0.56750
O548        O  0.79316404  0.44225616  0.69863243    -0.60040
In549      In  0.65395216  0.46055487  0.52797067     1.36870
C550        C  0.66408264  0.54043666  0.54116559     0.77650
O551        O  0.60212503  0.48153573  0.99914179    -0.60800
O552        O  0.59713748  0.44422216  0.53450451    -0.51710
C553        C  0.67233907  0.41525051  0.98722262     0.70320
O554        O  0.68451927  0.45157025  0.99306828    -0.46560
C555        C  0.70019411  0.42957846  0.57282534     0.75020
O556        O  0.67276693  0.52512799  0.51932447    -0.58420
O557        O  0.66548430  0.42525909  0.56932189    -0.48520
O558        O  0.65029275  0.51477378  0.55575356    -0.54860
C559        C  0.58083728  0.46505026  0.51336598     0.85200
O560        O  0.64964648  0.40256780  0.50166219    -0.56750
O561        O  0.71071888  0.44738296  0.55265687    -0.60040
In562      In  0.25173839  0.70345562  0.62600776     1.36870
C563        C  0.21320661  0.76094975  0.59329323     0.77650
O564        O  0.26030530  0.74415444  0.66440757    -0.60800
O565        O  0.30175134  0.74442504  0.64009225    -0.51710
C566        C  0.22441644  0.64910246  0.65747444     0.70320
O567        O  0.20404590  0.67221125  0.63966208    -0.46560
C568        C  0.27869028  0.65170946  0.59300807     0.75020
O569        O  0.20254147  0.74518773  0.61411040    -0.58420
O570        O  0.29927147  0.67161895  0.61273098    -0.48520
O571        O  0.24155117  0.74432499  0.58746546    -0.54860
C572        C  0.28975484  0.76034999  0.66029554     0.85200
O573        O  0.25871346  0.65316063  0.65861627    -0.56750
O574        O  0.24435904  0.65774679  0.59045747    -0.60040
In575      In  0.15320378  0.50019515  0.77914956     1.36870
C576        C  0.16623310  0.42200993  0.79530780     0.77650
O577        O  0.20941358  0.51680943  0.80373226    -0.60800
O578        O  0.16309384  0.53381515  0.82098433    -0.51710
C579        C  0.17118542  0.54484586  0.73781039     0.70320
O580        O  0.18196795  0.50785156  0.74291958    -0.46560
C581        C  0.08007649  0.49346552  0.76437070     0.75020
O582        O  0.17282774  0.43528207  0.77218749    -0.58420
O583        O  0.09582111  0.51893769  0.78296809    -0.48520
O584        O  0.15281893  0.44870015  0.80940204    -0.54860
C585        C  0.19796090  0.53193229  0.82441899     0.85200
O586        O  0.15046163  0.55844261  0.75353647    -0.56750
O587        O  0.10192697  0.47321307  0.75256784    -0.60040
In588      In  0.34933868  0.49781886  0.97383943     1.36870
C589        C  0.33739356  0.41847050  0.95955438     0.77650
O590        O  0.29238739  0.50970871  0.94899228    -0.60800
O591        O  0.33755351  0.53283321  0.93252688    -0.51710
C592        C  0.33155247  0.54466526  0.51425348     0.70320
O593        O  0.32634849  0.50581856  0.51299291    -0.46560
C594        C  0.42262608  0.49377086  0.98864587     0.75020
O595        O  0.32670917  0.43420397  0.98049170    -0.58420
O596        O  0.40624819  0.51369619  0.96713398    -0.48520
O597        O  0.35437301  0.44335794  0.94660000    -0.54860
C598        C  0.30287026  0.52807806  0.92895980     0.85200
O599        O  0.34684702  0.55908870  0.99519929    -0.56750
O600        O  0.40135626  0.47802018  0.50314189    -0.60040
C601        C  0.27634365  0.53996186  0.90278533    -0.05400
C602        C  0.23822568  0.53960470  0.90265908    -0.32830
C603        C  0.21198489  0.54125246  0.87723664     0.36420
C604        C  0.22371826  0.54242298  0.85128170    -0.05750
C605        C  0.26170906  0.54660364  0.85155839    -0.32720
C606        C  0.28793210  0.54589823  0.87704137     0.36330
H607        H  0.22866100  0.53567983  0.92224904     0.16700
O608        O  0.17520041  0.53740301  0.87799817    -0.60220
H609        H  0.27131497  0.54801342  0.83184511     0.16710
O610        O  0.32482295  0.54707180  0.87619627    -0.60320
H611        H  0.33165895  0.57691851  0.87791075     0.43710
H612        H  0.16619253  0.56629959  0.87887375     0.43670
C613        C  0.29358757  0.62441484  0.57378664    -0.05400
C614        C  0.29363756  0.58130048  0.57763305    -0.32830
C615        C  0.30656050  0.55482685  0.55874912     0.36420
C616        C  0.31967434  0.57158828  0.53562648    -0.05750
C617        C  0.31996690  0.61499266  0.53219921    -0.32720
C618        C  0.30685388  0.64128970  0.55099314     0.36330
H619        H  0.28348405  0.56814930  0.59524255     0.16700
O620        O  0.30671461  0.51276421  0.56335502    -0.60220
H621        H  0.32967855  0.62864031  0.51455558     0.16710
O622        O  0.30672677  0.68345850  0.54675673    -0.60320
H623        H  0.28183450  0.68979996  0.53528427     0.43710
H624        H  0.28134980  0.50325498  0.55467643     0.43670
C625        C  0.20940562  0.62077645  0.67630613    -0.05400
C626        C  0.17810543  0.63273793  0.68658207    -0.32830
C627        C  0.16521097  0.60834049  0.70653654     0.36420
C628        C  0.18293595  0.57050562  0.71578714    -0.05750
C629        C  0.21342088  0.55786003  0.70460920    -0.32720
C630        C  0.22701443  0.58296369  0.68536362     0.36330
H631        H  0.16435995  0.66187335  0.67988889     0.16700
O632        O  0.13513448  0.62169628  0.71666622    -0.60220
H633        H  0.22744355  0.52890951  0.71136160     0.16710
O634        O  0.25699999  0.56981631  0.67503153    -0.60320
H635        H  0.27893466  0.57787500  0.68961011     0.43710
H636        H  0.14527444  0.64128540  0.73219669     0.43670
C637        C  0.54022540  0.47129721  0.50649033    -0.05400
C638        C  0.51924309  0.46227959  0.52689465    -0.32830
C639        C  0.48119699  0.47047693  0.52171491     0.36420
C640        C  0.46325964  0.48761659  0.99559222    -0.05750
C641        C  0.48425467  0.49663505  0.97519522    -0.32720
C642        C  0.52229598  0.48845645  0.98038043     0.36330
H643        H  0.53246882  0.44949133  0.54720093     0.16700
O644        O  0.46190606  0.46154098  0.54239774    -0.60220
H645        H  0.47104232  0.50940647  0.95488098     0.16710
O646        O  0.54158209  0.49734224  0.95968611    -0.60320
H647        H  0.54094234  0.47133837  0.94856555     0.43710
H648        H  0.46267473  0.48746883  0.55361301     0.43670
C649        C  0.96263536  0.46888105  0.74536931    -0.05400
C650        C  0.97729728  0.50051952  0.76452364    -0.32830
C651        C  0.01521502  0.50951764  0.77048411     0.36420
C652        C  0.03950144  0.48643439  0.75745247    -0.05750
C653        C  0.02485890  0.45472643  0.73832324    -0.32720
C654        C  0.98688139  0.44581392  0.73229814     0.36330
H655        H  0.95922662  0.51887810  0.77473964     0.16700
O656        O  0.02814272  0.54068677  0.78931371    -0.60220
H657        H  0.04295600  0.43637143  0.72813164     0.16710
O658        O  0.97387796  0.41461511  0.71351689    -0.60320
H659        H  0.97493680  0.38911313  0.72518163     0.43710
H660        H  0.02667966  0.56630375  0.77772439     0.43670
C661        C  0.77935527  0.41859783  0.65066115    -0.05400
C662        C  0.74138104  0.41414450  0.65043567    -0.32830
C663        C  0.71517810  0.41356288  0.62496201     0.36420
C664        C  0.72674339  0.41832952  0.59912655    -0.05750
C665        C  0.76488969  0.41881188  0.59926727    -0.32720
C666        C  0.79113409  0.41852994  0.62473045     0.36330
H667        H  0.73171918  0.41341077  0.67014091     0.16700
O668        O  0.67829290  0.41232993  0.62582430    -0.60220
H669        H  0.77444333  0.42182876  0.57960693     0.16710
O670        O  0.82792439  0.42211669  0.62393208    -0.60320
H671        H  0.83700039  0.39313667  0.62379045     0.43710
H672        H  0.67168512  0.38240412  0.62473729     0.43670
C673        C  0.70895226  0.33567804  0.92704441    -0.05400
C674        C  0.73337124  0.36432082  0.94309197    -0.32830
C675        C  0.72139642  0.39115821  0.96211143     0.36420
C676        C  0.68460625  0.38916188  0.96581411    -0.05750
C677        C  0.66001081  0.36079178  0.94972417    -0.32720
C678        C  0.67181381  0.33441760  0.93023769     0.36330
H679        H  0.76207064  0.36570034  0.94113626     0.16700
O680        O  0.74649422  0.41744769  0.97824819    -0.60220
H681        H  0.63157762  0.35901118  0.95231503     0.16710
O682        O  0.64697493  0.30714067  0.91484472    -0.60320
H683        H  0.64847661  0.28174743  0.92665511     0.43710
H684        H  0.74709474  0.44242488  0.96633113     0.43670
C685        C  0.79220106  0.32858624  0.82276658    -0.05400
C686        C  0.82111412  0.35668652  0.83277405    -0.32830
C687        C  0.83462508  0.38288772  0.81399074     0.36420
C688        C  0.81991508  0.38024245  0.78478037    -0.05750
C689        C  0.79177114  0.35144879  0.77474610    -0.32720
C690        C  0.77739652  0.32631685  0.79349596     0.36330
H691        H  0.83277841  0.35884149  0.85521631     0.16700
O692        O  0.86235352  0.41063193  0.82432130    -0.60220
H693        H  0.78021198  0.34916935  0.75228078     0.16710
O694        O  0.74966262  0.29868709  0.78289099    -0.60320
H695        H  0.72644206  0.31503252  0.78030245     0.43710
H696        H  0.88567074  0.39585135  0.82349345     0.43670
C697        C  0.82591192  0.08155366  0.95507562    -0.05400
C698        C  0.79412334  0.10004957  0.96124950    -0.32830
C699        C  0.78132039  0.13824059  0.94917473     0.36420
C700        C  0.80082963  0.15898264  0.93097926    -0.05750
C701        C  0.83418467  0.14193077  0.92662877    -0.32720
C702        C  0.84673367  0.10357948  0.93845230     0.36330
H703        H  0.77795753  0.08385175  0.97422500     0.16700
O704        O  0.74912588  0.15432368  0.95467913    -0.60220
H705        H  0.84974744  0.15733714  0.91287538     0.16710
O706        O  0.87863110  0.08719896  0.93262285    -0.60320
H707        H  0.89849108  0.09548577  0.94880829     0.43710
H708        H  0.72892636  0.13956301  0.94163397     0.43670
C709        C  0.67647299  0.07941056  0.80133002    -0.05400
C710        C  0.65756807  0.09808345  0.82053201    -0.32830
C711        C  0.66869979  0.13665523  0.83272590     0.36420
C712        C  0.69961575  0.15704077  0.82611080    -0.05750
C713        C  0.71722467  0.13952060  0.80571986    -0.32720
C714        C  0.70565595  0.10124343  0.79313497     0.36330
H715        H  0.63481397  0.08205723  0.82696229     0.16700
O716        O  0.65100781  0.15236224  0.85276895    -0.60220
H717        H  0.74093886  0.15483908  0.80022462     0.16710
O718        O  0.72468701  0.08434804  0.77431144    -0.60320
H719        H  0.71190490  0.09477164  0.75552423     0.43710
H720        H  0.63021501  0.16904830  0.84204372     0.43670
C721        C  0.72388805  0.91976015  0.85217626    -0.05400
C722        C  0.76196436  0.91776306  0.85228772    -0.32830
C723        C  0.78822649  0.91723948  0.87772334     0.36420
C724        C  0.77660852  0.91956877  0.90369234    -0.05750
C725        C  0.73850200  0.91793242  0.90358384    -0.32720
C726        C  0.71222496  0.91757689  0.87812685     0.36330
H727        H  0.77156758  0.91875595  0.83256283     0.16700
O728        O  0.82509389  0.91821665  0.87678243    -0.60220
H729        H  0.72892043  0.91911075  0.92331141     0.16710
O730        O  0.67535356  0.91883502  0.87902252    -0.60320
H731        H  0.66745624  0.88933397  0.87867716     0.43710
H732        H  0.83274084  0.88865791  0.87707252     0.43670
C733        C  0.82413660  0.88425325  0.53969646    -0.05400
C734        C  0.83107016  0.84127877  0.53944798    -0.32830
C735        C  0.81878048  0.81453735  0.55848708     0.36420
C736        C  0.79917155  0.83059188  0.57817137    -0.05750
C737        C  0.79305763  0.87351888  0.57898807    -0.32720
C738        C  0.80559336  0.90035095  0.56015713     0.36330
H739        H  0.84520160  0.82812012  0.52394600     0.16700
O740        O  0.82456557  0.77258537  0.55677929    -0.60220
H741        H  0.77808240  0.88628476  0.59410826     0.16710
O742        O  0.79920033  0.94216913  0.56183182    -0.60320
H743        H  0.77383665  0.94655546  0.55055678     0.43710
H744        H  0.80217837  0.76175463  0.54378244     0.43670
C745        C  0.70940899  0.83033378  0.68008676    -0.05400
C746        C  0.71911881  0.82198749  0.70914611    -0.32830
C747        C  0.70568266  0.84671294  0.72858343     0.36420
C748        C  0.68322636  0.88133231  0.71915953    -0.05750
C749        C  0.67398596  0.89021800  0.69013289    -0.32720
C750        C  0.68648035  0.86459718  0.67056165     0.36330
H751        H  0.73679128  0.79579815  0.71680688     0.16700
O752        O  0.71607903  0.83792640  0.75688709    -0.60220
H753        H  0.65675543  0.91679800  0.68262212     0.16710
O754        O  0.67662178  0.87368750  0.64228358    -0.60320
H755        H  0.69692526  0.89140689  0.63825127     0.43710
H756        H  0.69833270  0.81646995  0.76055060     0.43670
C757        C  0.67066656  0.58438221  0.54976671    -0.05400
C758        C  0.69480483  0.60877488  0.53758030    -0.32830
C759        C  0.70581539  0.64824265  0.54839383     0.36420
C760        C  0.69232374  0.66405933  0.57154842    -0.05750
C761        C  0.66574696  0.64118805  0.58207100    -0.32720
C762        C  0.65524942  0.60147219  0.57165324     0.36330
H763        H  0.70669429  0.59642183  0.52058307     0.16700
O764        O  0.73129681  0.67005638  0.53715785    -0.60220
H765        H  0.65500124  0.65276474  0.59984777     0.16710
O766        O  0.63062352  0.57926078  0.58357754    -0.60320
H767        H  0.64560385  0.56700956  0.60107642     0.43710
H768        H  0.71649785  0.68926242  0.52322187     0.43670
C769        C  0.79304215  0.65459798  0.67827932    -0.05400
C770        C  0.76791517  0.62659020  0.68650762    -0.32830
C771        C  0.77986818  0.58853377  0.69905567     0.36420
C772        C  0.81756807  0.57789196  0.70376346    -0.05750
C773        C  0.84300004  0.60649312  0.69673256    -0.32720
C774        C  0.83108034  0.64483711  0.68439912     0.36330
H775        H  0.73853289  0.63331667  0.68209319     0.16700
O776        O  0.75412475  0.56093987  0.70497907    -0.60220
H777        H  0.87213834  0.59867679  0.70023153     0.16710
O778        O  0.85664800  0.67147634  0.67719440    -0.60320
H779        H  0.86436401  0.68975461  0.69390457     0.43710
H780        H  0.74682710  0.54376407  0.68766592     0.43670
C781        C  0.17650087  0.87845929  0.55669953    -0.05400
C782        C  0.18583828  0.84675668  0.53940650    -0.32830
C783        C  0.19611879  0.80724914  0.55058185     0.36420
C784        C  0.19670055  0.79899548  0.57927466    -0.05750
C785        C  0.18614588  0.83013587  0.59622607    -0.32720
C786        C  0.17677655  0.86972092  0.58538647     0.36330
H787        H  0.18578310  0.85278299  0.51734228     0.16700
O788        O  0.20613895  0.77722771  0.53346592    -0.60220
H789        H  0.18733305  0.82455404  0.61852036     0.16710
O790        O  0.16935384  0.90000500  0.60342698    -0.60320
H791        H  0.19361694  0.91319847  0.61125372     0.43710
H792        H  0.18324107  0.76098482  0.52641595     0.43670
C793        C  0.96311752  0.96958654  0.99593789    -0.05400
C794        C  0.97907905  0.99642072  0.51808744    -0.32830
C795        C  0.01713861  0.00470426  0.52398899     0.36420
C796        C  0.04023815  0.98573214  0.50779888    -0.05750
C797        C  0.02430458  0.95876968  0.98571373    -0.32720
C798        C  0.98617041  0.95082303  0.97962259     0.36330
H799        H  0.96196396  0.01139137  0.53086947     0.16700
O800        O  0.03144041  0.03070831  0.54603836    -0.60220
H801        H  0.04146403  0.94364742  0.97303253     0.16710
O802        O  0.97191343  0.92436284  0.95783000    -0.60320
H803        H  0.96685359  0.94206957  0.94067010     0.43710
H804        H  0.02923880  0.05904714  0.53779576     0.43670
C805        C  0.32681759  0.87658381  0.69974057    -0.05400
C806        C  0.34428841  0.85970582  0.67905823    -0.32830
C807        C  0.33451924  0.82044081  0.66746608     0.36420
C808        C  0.30644370  0.79735166  0.67625737    -0.05750
C809        C  0.29055922  0.81315264  0.69816900    -0.32720
C810        C  0.30068139  0.85227790  0.71001276     0.36330
H811        H  0.36485894  0.87757330  0.67109806     0.16700
O812        O  0.35087934  0.80634621  0.64621672    -0.60220
H813        H  0.26897205  0.79595228  0.70534191     0.16710
O814        O  0.28305560  0.86741862  0.73025894    -0.60320
H815        H  0.29815377  0.85777103  0.74851587     0.43710
H816        H  0.37277453  0.79032789  0.65590425     0.43670
C817        C  0.53860792  0.96878305  0.75753717    -0.05400
C818        C  0.52469267  0.00437057  0.74206861    -0.32830
C819        C  0.48679598  0.01329858  0.73622739     0.36420
C820        C  0.46184641  0.98618868  0.74559078    -0.05750
C821        C  0.47575251  0.95064651  0.76114506    -0.32720
C822        C  0.51371131  0.94176312  0.76703912     0.36330
H823        H  0.54334521  0.02586541  0.73479955     0.16700
O824        O  0.47456940  0.04865831  0.72138155    -0.60220
H825        H  0.45706486  0.92916951  0.76838602     0.16710
O826        O  0.52603472  0.90648958  0.78194635    -0.60320
H827        H  0.52582722  0.88464739  0.76742531     0.43710
H828        H  0.47470019  0.07041820  0.73594647     0.43670
C829        C  0.22715384  0.04276974  0.59780775    -0.05400
C830        C  0.26529658  0.04125841  0.59807564    -0.32830
C831        C  0.29139190  0.04101971  0.62360077     0.36420
C832        C  0.27945026  0.04158974  0.64947392    -0.05750
C833        C  0.24159523  0.04715097  0.64913669    -0.32720
C834        C  0.21554728  0.04820699  0.62358924     0.36330
H835        H  0.27491135  0.03760216  0.57848629     0.16700
O836        O  0.32808368  0.03599419  0.62292093    -0.60220
H837        H  0.23186555  0.04831385  0.66880517     0.16710
O838        O  0.17867274  0.05053815  0.62433819    -0.60320
H839        H  0.17269185  0.08059846  0.62284524     0.43710
H840        H  0.33803372  0.06459879  0.62263393     0.43670
C841        C  0.20867285  0.12082203  0.92546151    -0.05400
C842        C  0.22854545  0.08476221  0.93522621    -0.32830
C843        C  0.21591852  0.05766803  0.95385363     0.36420
C844        C  0.18349164  0.06715235  0.96372592    -0.05750
C845        C  0.16342279  0.10304704  0.95368704    -0.32720
C846        C  0.17548666  0.12947765  0.93440684     0.36330
H847        H  0.25408842  0.07763661  0.92848573     0.16700
O848        O  0.23661664  0.02325752  0.96343604    -0.60220
H849        H  0.13848459  0.11094973  0.96105531     0.16710
O850        O  0.15587141  0.16501054  0.92584485    -0.60320
H851        H  0.13630755  0.15644507  0.90953871     0.43710
H852        H  0.22792304  0.00134674  0.94916482     0.43670
C853        C  0.31925702  0.07332247  0.78457363    -0.05400
C854        C  0.29596842  0.05704987  0.80157425    -0.32830
C855        C  0.28261056  0.08238234  0.82081677     0.36420
C856        C  0.29320678  0.12438259  0.82380517    -0.05750
C857        C  0.31727655  0.14048175  0.80754304    -0.32720
C858        C  0.33000856  0.11549802  0.78782935     0.36330
H859        H  0.28748395  0.02475418  0.79961271     0.16700
O860        O  0.26010018  0.06554215  0.83721324    -0.60220
H861        H  0.32532963  0.17293033  0.80950690     0.16710
O862        O  0.35201349  0.13306220  0.77132445    -0.60320
H863        H  0.37768417  0.13006596  0.78234547     0.43710
H864        H  0.23476283  0.06670700  0.82537102     0.43670
C865        C  0.19474336  0.30064072  0.83010696    -0.05400
C866        C  0.19529878  0.30836176  0.80157935    -0.32830
C867        C  0.18484529  0.34727689  0.78943016     0.36420
C868        C  0.17431018  0.37929743  0.80606268    -0.05750
C869        C  0.17275357  0.37096481  0.83431038    -0.32720
C870        C  0.18306304  0.33231303  0.84638965     0.36330
H871        H  0.20457260  0.28446055  0.78885118     0.16700
O872        O  0.18593942  0.35387771  0.76158426    -0.60220
H873        H  0.16487972  0.39506687  0.84758441     0.16710
O874        O  0.18370774  0.32676006  0.87464712    -0.60320
H875        H  0.20896994  0.33514566  0.88447987     0.43710
H876        H  0.16066154  0.34715365  0.75093999     0.43670
C877        C  0.32982977  0.37504116  0.94987023    -0.05400
C878        C  0.34304895  0.36118720  0.92620119    -0.32830
C879        C  0.33253257  0.32254976  0.91388580     0.36420
C880        C  0.30857533  0.29660166  0.92535754    -0.05750
C881        C  0.29714298  0.30934465  0.95005549    -0.32720
C882        C  0.30773286  0.34808289  0.96240084     0.36330
H883        H  0.36043808  0.38110851  0.91635329     0.16700
O884        O  0.34438149  0.31153945  0.88979078    -0.60220
H885        H  0.27867672  0.28994276  0.95922517     0.16710
O886        O  0.29463857  0.36003782  0.98575514    -0.60320
H887        H  0.31360906  0.35056523  0.50215574     0.43710
H888        H  0.32636772  0.32436087  0.87403491     0.43670
loop_ 
_geom_bond_atom_site_label_1 
_geom_bond_atom_site_label_2 
_geom_bond_distance 
_geom_bond_site_symmetry_2 
_ccdc_geom_bond_type 
In1           O3   2.244       .  S
In1           O4   2.249       .  S
In1          O12   2.236       .  S
In1           O6   2.236       .  S
In1           O8   2.237       .  S
In1           O9   2.238       .  S
In1          O10   2.255       .  S
In1          O13   2.237       .  S
C2            O8   1.258       .  A
C2           O10   1.257       .  A
C2          C421   1.474       .  S
O3           C11   1.257       .  A
O4           C11   1.260       .  A
C5           O12   1.264       .  A
C5            O6   1.263       .  A
C5          C397   1.475       .  S
C7            O9   1.263       .  A
C7           O13   1.263       .  A
C7          C412   1.470       .  S
C11         C436   1.480       .  S
In14         O16   2.232   1_565  S
In14         O17   2.256   1_565  S
In14         O25   2.237   1_565  S
In14         O19   2.243   1_565  S
In14         O21   2.254       .  S
In14         O22   2.246   1_565  S
In14         O23   2.223       .  S
In14         O26   2.232       .  S
C15          O21   1.265       .  A
C15          O23   1.260       .  A
C15         C361   1.480       .  S
O16          C24   1.260       .  A
O17          C24   1.264       .  A
C18          O25   1.262       .  A
C18          O19   1.264       .  A
C18         C409   1.482       .  S
C20          O22   1.265   1_565  A
C20          O26   1.261       .  A
C20         C376   1.481       .  S
C24         C388   1.481       .  S
In27         O29   2.228   1_565  S
In27         O30   2.255   1_565  S
In27         O38   2.236   1_565  S
In27         O34   2.260       .  S
In27         O35   2.246   1_565  S
In27         O36   2.210       .  S
In27        O476   2.238   1_564  S
In27        O483   2.233       .  S
C28          O34   1.266       .  A
C28          O36   1.259       .  A
C28         C337   1.479       .  S
O29          C37   1.260       .  A
O30          C37   1.265       .  A
C31          O32   1.263       .  A
C31         O482   1.263       .  A
C31         C400   1.478       .  S
O32        In471   2.238   1_545  S
C33          O35   1.265   1_565  A
C33         O483   1.262       .  A
C33         C352   1.483       .  S
C37         C385   1.481       .  S
O38         C475   1.263   1_554  A
O39        In471   2.233       .  S
O39         C477   1.262       .  A
In40         O42   2.234       .  S
In40         O43   2.254       .  S
In40         O51   2.232       .  S
In40         O45   2.244       .  S
In40         O47   2.249       .  S
In40         O48   2.260       .  S
In40         O49   2.237       .  S
In40         O52   2.219       .  S
C41          O47   1.262       .  A
C41          O49   1.258       .  A
C41         C316   1.476       .  S
O42          C50   1.260       .  A
O43          C50   1.263       .  A
C44          O51   1.263       .  A
C44          O45   1.264       .  A
C44         C301   1.474       .  S
C46          O48   1.266       .  A
C46          O52   1.259       .  A
C46         C325   1.482       .  S
C50         C292   1.474       .  S
In53         O55   2.225       .  S
In53         O56   2.256       .  S
In53         O64   2.232       .  S
In53         O58   2.250       .  S
In53         O60   2.252   1_565  S
In53         O61   2.255       .  S
In53         O62   2.221   1_565  S
In53         O65   2.226       .  S
C54          O60   1.265       .  A
C54          O62   1.260       .  A
C54         C265   1.479       .  S
O55          C63   1.260       .  A
O56          C63   1.265       .  A
C57          O64   1.261       .  A
C57          O58   1.263       .  A
C57         C304   1.473       .  S
C59          O61   1.266       .  A
C59          O65   1.261       .  A
C59         C277   1.482       .  S
C63         C373   1.480       .  S
In66         O69   2.247       .  S
In66         O77   2.244       .  S
In66         O73   2.256   1_565  S
In66         O74   2.256       .  S
In66         O75   2.226   1_565  S
In66         O78   2.235       .  S
In66        O512   2.231       .  S
In66        O515   2.240       .  S
C67          O73   1.264       .  A
C67          O75   1.259       .  A
C67         C253   1.478       .  S
O68        In510   2.231   1_554  S
O68         C520   1.262   1_554  A
O69          C76   1.265       .  A
C70          O71   1.263       .  A
C70         O521   1.263   1_554  A
C70         C289   1.484       .  S
O71        In510   2.240   1_554  S
C72          O74   1.264       .  A
C72          O78   1.260       .  A
C72         C280   1.482       .  S
C76         O512   1.262       .  A
C76         C349   1.483       .  S
O77         C514   1.263       .  A
In79         O81   2.229       .  S
In79         O82   2.250       .  S
In79         O90   2.230       .  S
In79         O84   2.251       .  S
In79         O86   2.253       .  S
In79         O87   2.246       .  S
In79         O88   2.230       .  S
In79         O91   2.227       .  S
C80          O86   1.264       .  A
C80          O88   1.258       .  A
C80         C256   1.481       .  S
O81          C89   1.261       .  A
O82          C89   1.263       .  A
C83          O90   1.261       .  A
C83          O84   1.264       .  A
C83         C241   1.476       .  S
C85          O87   1.265       .  A
C85          O91   1.261       .  A
C85         C268   1.478       .  S
C89         C229   1.480       .  S
In92         O94   2.226       .  S
In92         O95   2.253       .  S
In92        O103   2.234       .  S
In92         O97   2.252       .  S
In92         O99   2.250       .  S
In92        O100   2.259       .  S
In92        O101   2.233       .  S
In92        O104   2.224       .  S
C93          O99   1.263       .  A
C93         O101   1.259       .  A
C93         C328   1.474       .  S
O94         C102   1.261       .  A
O95         C102   1.266       .  A
C96         O103   1.260       .  A
C96          O97   1.262       .  A
C96         C244   1.471       .  S
C98         O100   1.266       .  A
C98         O104   1.260       .  A
C98         C217   1.482       .  S
C102        C205   1.482       .  S
In105       O108   2.246       .  S
In105       O116   2.244       .  S
In105       O112   2.256       .  S
In105       O113   2.262       .  S
In105       O114   2.222       .  S
In105       O117   2.229       .  S
In105       O551   2.228   1_554  S
In105       O554   2.233   1_554  S
C106        O112   1.264       .  A
C106        O114   1.259       .  A
C106        C313   1.479       .  S
O107       In549   2.228       .  S
O107        C559   1.262       .  A
O108        C115   1.266       .  A
C109        O110   1.262       .  A
C109        O560   1.263       .  A
C109        C232   1.474       .  S
O110       In549   2.233       .  S
C111        O113   1.265       .  A
C111        O117   1.259       .  A
C111        C220   1.482       .  S
C115        O551   1.262   1_554  A
C115        C193   1.481       .  S
O116        C553   1.263   1_554  A
In118       O120   2.239       .  S
In118       O121   2.255       .  S
In118       O129   2.237       .  S
In118       O123   2.240       .  S
In118       O125   2.238       .  S
In118       O126   2.238       .  S
In118       O127   2.248       .  S
In118       O130   2.235       .  S
C119        O125   1.260       .  A
C119        O127   1.258       .  A
C119        C340   1.470       .  S
O120        C128   1.257       .  A
O121        C128   1.261       .  A
C122        O129   1.262       .  A
C122        O123   1.263       .  A
C122        C181   1.474       .  S
C124        O126   1.263       .  A
C124        O130   1.263       .  A
C124        C169   1.465       .  S
C128        C364   1.481       .  S
In131       O133   2.232       .  S
In131       O134   2.255       .  S
In131       O142   2.237       .  S
In131       O136   2.240       .  S
In131       O138   2.259       .  S
In131       O139   2.247       .  S
In131       O140   2.212       .  S
In131       O143   2.232       .  S
C132        O138   1.266       .  A
C132        O140   1.259       .  A
C132        C424   1.478       .  S
O133        C141   1.261       .  A
O134        C141   1.265       .  A
C135        O142   1.262       .  A
C135        O136   1.264       .  A
C135        C184   1.480       .  S
C137        O139   1.265       .  A
C137        O143   1.261       .  A
C137        C208   1.483       .  S
C141        C160   1.481       .  S
In144       O146   2.229       .  S
In144       O147   2.256       .  S
In144       O155   2.236       .  S
In144       O151   2.258       .  S
In144       O152   2.248       .  S
In144       O153   2.222       .  S
In144       O593   2.242       .  S
In144       O600   2.232       .  S
C145        O151   1.265       .  A
C145        O153   1.259       .  A
C145        C433   1.481       .  S
O146        C154   1.261       .  A
O147        C154   1.265       .  A
C148        O149   1.264       .  A
C148        O599   1.263   1_554  A
C148        C172   1.482       .  S
O149       In588   2.242   1_554  S
C150        O152   1.265       .  A
C150        O600   1.261       .  A
C150        C196   1.481       .  S
C154        C157   1.482       .  S
O155        C592   1.263       .  A
O156       In588   2.232   1_554  S
O156        C594   1.261   1_554  A
C157        C158   1.406       .  A
C157        C162   1.409       .  A
C158        C159   1.400       .  A
C158        H163   1.084       .  S
C159        C160   1.409       .  A
C159        O164   1.371       .  S
C160        C161   1.406       .  A
C161        C162   1.401       .  A
C161        H165   1.084       .  S
C162        O166   1.371       .  S
O164        H168   0.992       .  S
O166        H167   0.992       .  S
C169        C170   1.400       .  A
C169        C174   1.403       .  A
C170        C171   1.402       .  A
C170        H175   1.084       .  S
C171        C172   1.413       .  A
C171        O176   1.371       .  S
C172        C173   1.407       .  A
C173        C174   1.399       .  A
C173        H177   1.083       .  S
C174        O178   1.372       .  S
O176        H180   0.992       .  S
O178        H179   0.992       .  S
C181        C182   1.402       .  A
C181        C186   1.407       .  A
C182        C183   1.400       .  A
C182        H187   1.084       .  S
C183        C184   1.411       .  A
C183        O188   1.372       .  S
C184        C185   1.405       .  A
C185        C186   1.400       .  A
C185        H189   1.083       .  S
C186        O190   1.372       .  S
O188        H192   0.992       .  S
O190        H191   0.992       .  S
C193        C194   1.404       .  A
C193        C642   1.411   1_554  A
C194        C195   1.400       .  A
C194        H199   1.083       .  S
C195        C640   1.412   1_554  A
C195        O200   1.371       .  S
C196        C197   1.404       .  A
C196        C639   1.412       .  A
C197        C198   1.400       .  A
C197        H201   1.083       .  S
C198        C637   1.411       .  A
C198        O202   1.372       .  S
O200        H204   0.992       .  S
O202        H203   0.992       .  S
C205        C206   1.406       .  A
C205        C210   1.409       .  A
C206        C207   1.399   1_655  A
C206        H211   1.083       .  S
C207        C208   1.409       .  A
C207        O212   1.371       .  S
C208        C209   1.407       .  A
C209        C210   1.401   1_455  A
C209        H213   1.083       .  S
C210        O214   1.371       .  S
O212        H216   0.992       .  S
O214        H215   0.992       .  S
C217        C218   1.407       .  A
C217        C222   1.408       .  A
C218        C219   1.400       .  A
C218        H223   1.084       .  S
C219        C220   1.408       .  A
C219        O224   1.371       .  S
C220        C221   1.407       .  A
C221        C222   1.401       .  A
C221        H225   1.084       .  S
C222        O226   1.371       .  S
O224        H228   0.992       .  S
O226        H227   0.992       .  S
C229        C230   1.405       .  A
C229        C234   1.411       .  A
C230        C231   1.398       .  A
C230        H235   1.084       .  S
C231        C232   1.407       .  A
C231        O236   1.372       .  S
C232        C233   1.403       .  A
C233        C234   1.402       .  A
C233        H237   1.084       .  S
C234        O238   1.371       .  S
O236        H240   0.992       .  S
O238        H239   0.992       .  S
C241        C242   1.405       .  A
C241        C246   1.409       .  A
C242        C243   1.403       .  A
C242        H247   1.083       .  S
C243        C244   1.407       .  A
C243        O248   1.371       .  S
C244        C245   1.401       .  A
C245        C246   1.398       .  A
C245        H249   1.084       .  S
C246        O250   1.372       .  S
O248        H252   0.992       .  S
O250        H251   0.992       .  S
C253        C254   1.402       .  A
C253        C258   1.411       .  A
C254        C255   1.401       .  A
C254        H259   1.084       .  S
C255        C256   1.413       .  A
C255        O260   1.372       .  S
C256        C257   1.403       .  A
C257        C258   1.399       .  A
C257        H261   1.083       .  S
C258        O262   1.372       .  S
O260        H264   0.992       .  S
O262        H263   0.992       .  S
C265        C266   1.406       .  A
C265        C270   1.409       .  A
C266        C267   1.398       .  A
C266        H271   1.084       .  S
C267        C268   1.408       .  A
C267        O272   1.371       .  S
C268        C269   1.405       .  A
C269        C270   1.400       .  A
C269        H273   1.084       .  S
C270        O274   1.371       .  S
O272        H276   0.992       .  S
O274        H275   0.992       .  S
C277        C278   1.406       .  A
C277        C282   1.409       .  A
C278        C279   1.400       .  A
C278        H283   1.084       .  S
C279        C280   1.409       .  A
C279        O284   1.371       .  S
C280        C281   1.406       .  A
C281        C282   1.401       .  A
C281        H285   1.084       .  S
C282        O286   1.371       .  S
O284        H288   0.992       .  S
O286        H287   0.992       .  S
C289        C290   1.407       .  A
C289        C294   1.412       .  A
C290        C291   1.401       .  A
C290        H295   1.083       .  S
C291        C292   1.407       .  A
C291        O296   1.372       .  S
C292        C293   1.402       .  A
C293        C294   1.400       .  A
C293        H297   1.084       .  S
C294        O298   1.372       .  S
O296        H300   0.992       .  S
O298        H299   0.992       .  S
C301        C302   1.402       .  A
C301        C306   1.409       .  A
C302        C303   1.398       .  A
C302        H307   1.084       .  S
C303        C304   1.408       .  A
C303        O308   1.372       .  S
C304        C305   1.403       .  A
C305        C306   1.402       .  A
C305        H309   1.084       .  S
C306        O310   1.371       .  S
O308        H312   0.992       .  S
O310        H311   0.992       .  S
C313        C314   1.404       .  A
C313        C318   1.412       .  A
C314        C315   1.401       .  A
C314        H319   1.083       .  S
C315        C316   1.410       .  A
C315        O320   1.371       .  S
C316        C317   1.402       .  A
C317        C318   1.398       .  A
C317        H321   1.084       .  S
C318        O322   1.372       .  S
O320        H324   0.992       .  S
O322        H323   0.992       .  S
C325        C326   1.407       .  A
C325        C330   1.410       .  A
C326        C327   1.398       .  A
C326        H331   1.083       .  S
C327        C328   1.406       .  A
C327        O332   1.372       .  S
C328        C329   1.404       .  A
C329        C330   1.402       .  A
C329        H333   1.084       .  S
C330        O334   1.371       .  S
O332        H336   0.992       .  S
O334        H335   0.992       .  S
C337        C338   1.406       .  A
C337        C342   1.412       .  A
C338        C339   1.403       .  A
C338        H343   1.083       .  S
C339        C340   1.408       .  A
C339        O344   1.371       .  S
C340        C341   1.399       .  A
C341        C342   1.394       .  A
C341        H345   1.084       .  S
C342        O346   1.372       .  S
O344        H348   0.992       .  S
O346        H347   0.992       .  S
C349        C354   1.410       .  A
C349        C794   1.406       .  A
C350        C351   1.400   1_665  A
C350        C793   1.406   1_554  A
C350        H355   1.083   1_565  S
C351        C352   1.410   1_545  A
C351        O356   1.371       .  S
C352        C797   1.406   1_554  A
C353        C354   1.401   1_455  A
C353        C796   1.406       .  A
C353        H357   1.083       .  S
C354        O358   1.371       .  S
O356        H360   0.992       .  S
O358        H359   0.992       .  S
C361        C362   1.406       .  A
C361        C366   1.408       .  A
C362        C363   1.398       .  A
C362        H367   1.084       .  S
C363        C364   1.409       .  A
C363        O368   1.371       .  S
C364        C365   1.407       .  A
C365        C366   1.401       .  A
C365        H369   1.083       .  S
C366        O370   1.371       .  S
O368        H372   0.992       .  S
O370        H371   0.992       .  S
C373        C374   1.406   1_565  A
C373        C378   1.408       .  A
C374        C375   1.399       .  A
C374        H379   1.084       .  S
C375        C376   1.408   1_545  A
C375        O380   1.371       .  S
C376        C377   1.407       .  A
C377        C378   1.401       .  A
C377        H381   1.083       .  S
C378        O382   1.371       .  S
O380        H384   0.992       .  S
O382        H383   0.992       .  S
C385        C386   1.406       .  A
C385        C390   1.409       .  A
C386        C387   1.400       .  A
C386        H391   1.084       .  S
C387        C388   1.409       .  A
C387        O392   1.371       .  S
C388        C389   1.406       .  A
C389        C390   1.400       .  A
C389        H393   1.084       .  S
C390        O394   1.371       .  S
O392        H396   0.992       .  S
O394        H395   0.992       .  S
C397        C398   1.402       .  A
C397        C402   1.408       .  A
C398        C399   1.400       .  A
C398        H403   1.084       .  S
C399        C400   1.410       .  A
C399        O404   1.371       .  S
C400        C401   1.404       .  A
C401        C402   1.400       .  A
C401        H405   1.084       .  S
C402        O406   1.372       .  S
O404        H408   0.992       .  S
O406        H407   0.992       .  S
C409        C410   1.406       .  A
C409        C414   1.413       .  A
C410        C411   1.400       .  A
C410        H415   1.083       .  S
C411        C412   1.405       .  A
C411        O416   1.372       .  S
C412        C413   1.401       .  A
C413        C414   1.400       .  A
C413        H417   1.084       .  S
C414        O418   1.371       .  S
O416        H420   0.992       .  S
O418        H419   0.992       .  S
C421        C422   1.405       .  A
C421        C426   1.408       .  A
C422        C423   1.403       .  A
C422        H427   1.083       .  S
C423        C424   1.410       .  A
C423        O428   1.371       .  S
C424        C425   1.404       .  A
C425        C426   1.394       .  A
C425        H429   1.084       .  S
C426        O430   1.372       .  S
O428        H432   0.992       .  S
O430        H431   0.992       .  S
C433        C434   1.405       .  A
C433        C438   1.409       .  A
C434        C435   1.398       .  A
C434        H439   1.084       .  S
C435        C436   1.409       .  A
C435        O440   1.372       .  S
C436        C437   1.406       .  A
C437        C438   1.402       .  A
C437        H441   1.083       .  S
C438        O442   1.371       .  S
O440        H444   0.992       .  S
O442        H887   0.992       .  S
H443        O886   0.992   1_554  S
In445       O447   2.244       .  S
In445       O448   2.249       .  S
In445       O456   2.236       .  S
In445       O450   2.236       .  S
In445       O452   2.237       .  S
In445       O453   2.238       .  S
In445       O454   2.255       .  S
In445       O457   2.237       .  S
C446        O452   1.258       .  A
C446        O454   1.257       .  A
C446        C865   1.474       .  S
O447        C455   1.257       .  A
O448        C455   1.260       .  A
C449        O456   1.264       .  A
C449        O450   1.263       .  A
C449        C841   1.475       .  S
C451        O453   1.263       .  A
C451        O457   1.263       .  A
C451        C856   1.470       .  S
C455        C880   1.480       .  S
In458       O460   2.232   1_565  S
In458       O461   2.256   1_565  S
In458       O469   2.237   1_565  S
In458       O463   2.243   1_565  S
In458       O465   2.254       .  S
In458       O466   2.246   1_565  S
In458       O467   2.223       .  S
In458       O470   2.232       .  S
C459        O465   1.265       .  A
C459        O467   1.260       .  A
C459        C805   1.480       .  S
O460        C468   1.260       .  A
O461        C468   1.264       .  A
C462        O469   1.262       .  A
C462        O463   1.264       .  A
C462        C853   1.482       .  S
C464        O466   1.265   1_565  A
C464        O470   1.261       .  A
C464        C820   1.481       .  S
C468        C832   1.481       .  S
In471       O473   2.228   1_565  S
In471       O474   2.255   1_565  S
In471       O482   2.236   1_565  S
In471       O478   2.260       .  S
In471       O479   2.246   1_565  S
In471       O480   2.210       .  S
C472        O478   1.266       .  A
C472        O480   1.259       .  A
C472        C781   1.479       .  S
O473        C481   1.260       .  A
O474        C481   1.265       .  A
C475        O476   1.263       .  A
C475        C844   1.478       .  S
C477        O479   1.265   1_565  A
C477        C796   1.483       .  S
C481        C829   1.481       .  S
In484       O486   2.234       .  S
In484       O487   2.254       .  S
In484       O495   2.232       .  S
In484       O489   2.244       .  S
In484       O491   2.249       .  S
In484       O492   2.260       .  S
In484       O493   2.237       .  S
In484       O496   2.219       .  S
C485        O491   1.262       .  A
C485        O493   1.258       .  A
C485        C760   1.476       .  S
O486        C494   1.260       .  A
O487        C494   1.263       .  A
C488        O495   1.263       .  A
C488        O489   1.264       .  A
C488        C745   1.474       .  S
C490        O492   1.266       .  A
C490        O496   1.259       .  A
C490        C769   1.482       .  S
C494        C736   1.474       .  S
In497       O499   2.225       .  S
In497       O500   2.256       .  S
In497       O508   2.232       .  S
In497       O502   2.250       .  S
In497       O504   2.252   1_565  S
In497       O505   2.255       .  S
In497       O506   2.221   1_565  S
In497       O509   2.226       .  S
C498        O504   1.265       .  A
C498        O506   1.260       .  A
C498        C709   1.479       .  S
O499        C507   1.260       .  A
O500        C507   1.265       .  A
C501        O508   1.261       .  A
C501        O502   1.263       .  A
C501        C748   1.473       .  S
C503        O505   1.266       .  A
C503        O509   1.261       .  A
C503        C721   1.482       .  S
C507        C817   1.480       .  S
In510       O513   2.247       .  S
In510       O521   2.244       .  S
In510       O517   2.256   1_565  S
In510       O518   2.256       .  S
In510       O519   2.226   1_565  S
In510       O522   2.235       .  S
C511        O517   1.264       .  A
C511        O519   1.259       .  A
C511        C697   1.478       .  S
O513        C520   1.265       .  A
C514        O515   1.263       .  A
C514        C733   1.484       .  S
C516        O518   1.264       .  A
C516        O522   1.260       .  A
C516        C724   1.482       .  S
C520        C793   1.483       .  S
In523       O525   2.229       .  S
In523       O526   2.250       .  S
In523       O534   2.230       .  S
In523       O528   2.251       .  S
In523       O530   2.253       .  S
In523       O531   2.246       .  S
In523       O532   2.230       .  S
In523       O535   2.227       .  S
C524        O530   1.264       .  A
C524        O532   1.258       .  A
C524        C700   1.481       .  S
O525        C533   1.261       .  A
O526        C533   1.263       .  A
C527        O534   1.261       .  A
C527        O528   1.264       .  A
C527        C685   1.476       .  S
C529        O531   1.265       .  A
C529        O535   1.261       .  A
C529        C712   1.478       .  S
C533        C673   1.480       .  S
In536       O538   2.226       .  S
In536       O539   2.253       .  S
In536       O547   2.234       .  S
In536       O541   2.252       .  S
In536       O543   2.250       .  S
In536       O544   2.259       .  S
In536       O545   2.233       .  S
In536       O548   2.224       .  S
C537        O543   1.263       .  A
C537        O545   1.259       .  A
C537        C772   1.474       .  S
O538        C546   1.261       .  A
O539        C546   1.266       .  A
C540        O547   1.260       .  A
C540        O541   1.262       .  A
C540        C688   1.471       .  S
C542        O544   1.266       .  A
C542        O548   1.260       .  A
C542        C661   1.482       .  S
C546        C649   1.482       .  S
In549       O552   2.246       .  S
In549       O560   2.244       .  S
In549       O556   2.256       .  S
In549       O557   2.262       .  S
In549       O558   2.222       .  S
In549       O561   2.229       .  S
C550        O556   1.264       .  A
C550        O558   1.259       .  A
C550        C757   1.479       .  S
O552        C559   1.266       .  A
C553        O554   1.262       .  A
C553        C676   1.474       .  S
C555        O557   1.265       .  A
C555        O561   1.259       .  A
C555        C664   1.482       .  S
C559        C637   1.481       .  S
In562       O564   2.239       .  S
In562       O565   2.255       .  S
In562       O573   2.237       .  S
In562       O567   2.240       .  S
In562       O569   2.238       .  S
In562       O570   2.238       .  S
In562       O571   2.248       .  S
In562       O574   2.235       .  S
C563        O569   1.260       .  A
C563        O571   1.258       .  A
C563        C784   1.470       .  S
O564        C572   1.257       .  A
O565        C572   1.261       .  A
C566        O573   1.262       .  A
C566        O567   1.263       .  A
C566        C625   1.474       .  S
C568        O570   1.263       .  A
C568        O574   1.263       .  A
C568        C613   1.465       .  S
C572        C808   1.481       .  S
In575       O577   2.232       .  S
In575       O578   2.255       .  S
In575       O586   2.237       .  S
In575       O580   2.240       .  S
In575       O582   2.259       .  S
In575       O583   2.247       .  S
In575       O584   2.212       .  S
In575       O587   2.232       .  S
C576        O582   1.266       .  A
C576        O584   1.259       .  A
C576        C868   1.478       .  S
O577        C585   1.261       .  A
O578        C585   1.265       .  A
C579        O586   1.262       .  A
C579        O580   1.264       .  A
C579        C628   1.480       .  S
C581        O583   1.265       .  A
C581        O587   1.261       .  A
C581        C652   1.483       .  S
C585        C604   1.481       .  S
In588       O590   2.229       .  S
In588       O591   2.256       .  S
In588       O599   2.236       .  S
In588       O595   2.258       .  S
In588       O596   2.248       .  S
In588       O597   2.222       .  S
C589        O595   1.265       .  A
C589        O597   1.259       .  A
C589        C877   1.481       .  S
O590        C598   1.261       .  A
O591        C598   1.265       .  A
C592        O593   1.264       .  A
C592        C616   1.482       .  S
C594        O596   1.265       .  A
C594        C640   1.481       .  S
C598        C601   1.482       .  S
C601        C602   1.406       .  A
C601        C606   1.409       .  A
C602        C603   1.400       .  A
C602        H607   1.084       .  S
C603        C604   1.409       .  A
C603        O608   1.371       .  S
C604        C605   1.406       .  A
C605        C606   1.401       .  A
C605        H609   1.084       .  S
C606        O610   1.371       .  S
O608        H612   0.992       .  S
O610        H611   0.992       .  S
C613        C614   1.400       .  A
C613        C618   1.403       .  A
C614        C615   1.402       .  A
C614        H619   1.084       .  S
C615        C616   1.413       .  A
C615        O620   1.371       .  S
C616        C617   1.407       .  A
C617        C618   1.399       .  A
C617        H621   1.083       .  S
C618        O622   1.372       .  S
O620        H624   0.992       .  S
O622        H623   0.992       .  S
C625        C626   1.402       .  A
C625        C630   1.407       .  A
C626        C627   1.400       .  A
C626        H631   1.084       .  S
C627        C628   1.411       .  A
C627        O632   1.372       .  S
C628        C629   1.405       .  A
C629        C630   1.400       .  A
C629        H633   1.083       .  S
C630        O634   1.372       .  S
O632        H636   0.992       .  S
O634        H635   0.992       .  S
C637        C638   1.404       .  A
C638        C639   1.400       .  A
C638        H643   1.083       .  S
C639        O644   1.371       .  S
C640        C641   1.404       .  A
C641        C642   1.400       .  A
C641        H645   1.083       .  S
C642        O646   1.372       .  S
O644        H648   0.992       .  S
O646        H647   0.992       .  S
C649        C650   1.406       .  A
C649        C654   1.409       .  A
C650        C651   1.399   1_655  A
C650        H655   1.083       .  S
C651        C652   1.409       .  A
C651        O656   1.371       .  S
C652        C653   1.407       .  A
C653        C654   1.401   1_455  A
C653        H657   1.083       .  S
C654        O658   1.371       .  S
O656        H660   0.992       .  S
O658        H659   0.992       .  S
C661        C662   1.407       .  A
C661        C666   1.408       .  A
C662        C663   1.400       .  A
C662        H667   1.084       .  S
C663        C664   1.408       .  A
C663        O668   1.371       .  S
C664        C665   1.407       .  A
C665        C666   1.401       .  A
C665        H669   1.084       .  S
C666        O670   1.371       .  S
O668        H672   0.992       .  S
O670        H671   0.992       .  S
C673        C674   1.405       .  A
C673        C678   1.411       .  A
C674        C675   1.398       .  A
C674        H679   1.084       .  S
C675        C676   1.407       .  A
C675        O680   1.372       .  S
C676        C677   1.403       .  A
C677        C678   1.402       .  A
C677        H681   1.084       .  S
C678        O682   1.371       .  S
O680        H684   0.992       .  S
O682        H683   0.992       .  S
C685        C686   1.405       .  A
C685        C690   1.409       .  A
C686        C687   1.403       .  A
C686        H691   1.083       .  S
C687        C688   1.407       .  A
C687        O692   1.371       .  S
C688        C689   1.401       .  A
C689        C690   1.398       .  A
C689        H693   1.084       .  S
C690        O694   1.372       .  S
O692        H696   0.992       .  S
O694        H695   0.992       .  S
C697        C698   1.402       .  A
C697        C702   1.411       .  A
C698        C699   1.401       .  A
C698        H703   1.084       .  S
C699        C700   1.413       .  A
C699        O704   1.372       .  S
C700        C701   1.403       .  A
C701        C702   1.399       .  A
C701        H705   1.083       .  S
C702        O706   1.372       .  S
O704        H708   0.992       .  S
O706        H707   0.992       .  S
C709        C710   1.406       .  A
C709        C714   1.409       .  A
C710        C711   1.398       .  A
C710        H715   1.084       .  S
C711        C712   1.408       .  A
C711        O716   1.371       .  S
C712        C713   1.405       .  A
C713        C714   1.400       .  A
C713        H717   1.084       .  S
C714        O718   1.371       .  S
O716        H720   0.992       .  S
O718        H719   0.992       .  S
C721        C722   1.406       .  A
C721        C726   1.409       .  A
C722        C723   1.400       .  A
C722        H727   1.084       .  S
C723        C724   1.409       .  A
C723        O728   1.371       .  S
C724        C725   1.406       .  A
C725        C726   1.401       .  A
C725        H729   1.084       .  S
C726        O730   1.371       .  S
O728        H732   0.992       .  S
O730        H731   0.992       .  S
C733        C734   1.407       .  A
C733        C738   1.412       .  A
C734        C735   1.401       .  A
C734        H739   1.083       .  S
C735        C736   1.407       .  A
C735        O740   1.372       .  S
C736        C737   1.402       .  A
C737        C738   1.400       .  A
C737        H741   1.084       .  S
C738        O742   1.372       .  S
O740        H744   0.992       .  S
O742        H743   0.992       .  S
C745        C746   1.402       .  A
C745        C750   1.409       .  A
C746        C747   1.398       .  A
C746        H751   1.084       .  S
C747        C748   1.408       .  A
C747        O752   1.372       .  S
C748        C749   1.403       .  A
C749        C750   1.402       .  A
C749        H753   1.084       .  S
C750        O754   1.371       .  S
O752        H756   0.992       .  S
O754        H755   0.992       .  S
C757        C758   1.404       .  A
C757        C762   1.412       .  A
C758        C759   1.401       .  A
C758        H763   1.083       .  S
C759        C760   1.410       .  A
C759        O764   1.371       .  S
C760        C761   1.402       .  A
C761        C762   1.398       .  A
C761        H765   1.084       .  S
C762        O766   1.372       .  S
O764        H768   0.992       .  S
O766        H767   0.992       .  S
C769        C770   1.407       .  A
C769        C774   1.410       .  A
C770        C771   1.398       .  A
C770        H775   1.083       .  S
C771        C772   1.406       .  A
C771        O776   1.372       .  S
C772        C773   1.404       .  A
C773        C774   1.402       .  A
C773        H777   1.084       .  S
C774        O778   1.371       .  S
O776        H780   0.992       .  S
O778        H779   0.992       .  S
C781        C782   1.406       .  A
C781        C786   1.412       .  A
C782        C783   1.403       .  A
C782        H787   1.083       .  S
C783        C784   1.408       .  A
C783        O788   1.371       .  S
C784        C785   1.399       .  A
C785        C786   1.394       .  A
C785        H789   1.084       .  S
C786        O790   1.372       .  S
O788        H792   0.992       .  S
O790        H791   0.992       .  S
C793        C798   1.410       .  A
C794        C795   1.400   1_665  A
C794        H799   1.083   1_565  S
C795        C796   1.410   1_545  A
C795        O800   1.371       .  S
C797        C798   1.401   1_455  A
C797        H801   1.083       .  S
C798        O802   1.371       .  S
O800        H804   0.992       .  S
O802        H803   0.992       .  S
C805        C806   1.406       .  A
C805        C810   1.408       .  A
C806        C807   1.398       .  A
C806        H811   1.084       .  S
C807        C808   1.409       .  A
C807        O812   1.371       .  S
C808        C809   1.407       .  A
C809        C810   1.401       .  A
C809        H813   1.083       .  S
C810        O814   1.371       .  S
O812        H816   0.992       .  S
O814        H815   0.992       .  S
C817        C818   1.406   1_565  A
C817        C822   1.408       .  A
C818        C819   1.399       .  A
C818        H823   1.084       .  S
C819        C820   1.408   1_545  A
C819        O824   1.371       .  S
C820        C821   1.407       .  A
C821        C822   1.401       .  A
C821        H825   1.083       .  S
C822        O826   1.371       .  S
O824        H828   0.992       .  S
O826        H827   0.992       .  S
C829        C830   1.406       .  A
C829        C834   1.409       .  A
C830        C831   1.400       .  A
C830        H835   1.084       .  S
C831        C832   1.409       .  A
C831        O836   1.371       .  S
C832        C833   1.406       .  A
C833        C834   1.400       .  A
C833        H837   1.084       .  S
C834        O838   1.371       .  S
O836        H840   0.992       .  S
O838        H839   0.992       .  S
C841        C842   1.402       .  A
C841        C846   1.408       .  A
C842        C843   1.400       .  A
C842        H847   1.084       .  S
C843        C844   1.410       .  A
C843        O848   1.371       .  S
C844        C845   1.404       .  A
C845        C846   1.400       .  A
C845        H849   1.084       .  S
C846        O850   1.372       .  S
O848        H852   0.992       .  S
O850        H851   0.992       .  S
C853        C854   1.406       .  A
C853        C858   1.413       .  A
C854        C855   1.400       .  A
C854        H859   1.083       .  S
C855        C856   1.405       .  A
C855        O860   1.372       .  S
C856        C857   1.401       .  A
C857        C858   1.400       .  A
C857        H861   1.084       .  S
C858        O862   1.371       .  S
O860        H864   0.992       .  S
O862        H863   0.992       .  S
C865        C866   1.405       .  A
C865        C870   1.408       .  A
C866        C867   1.403       .  A
C866        H871   1.083       .  S
C867        C868   1.410       .  A
C867        O872   1.371       .  S
C868        C869   1.404       .  A
C869        C870   1.394       .  A
C869        H873   1.084       .  S
C870        O874   1.372       .  S
O872        H876   0.992       .  S
O874        H875   0.992       .  S
C877        C878   1.405       .  A
C877        C882   1.409       .  A
C878        C879   1.398       .  A
C878        H883   1.084       .  S
C879        C880   1.409       .  A
C879        O884   1.372       .  S
C880        C881   1.406       .  A
C881        C882   1.402       .  A
C881        H885   1.083       .  S
C882        O886   1.371       .  S
O884        H888   0.992       .  S
