geometry optimzed in LAMMPS
_audit_creation_date              2020-11-30 
_audit_creation_method            'lammps2cif' 
_symmetry_space_group_name_H-M    'P1' 
_symmetry_Int_Tables_number       1 
_symmetry_cell_setting            triclinic 
loop_ 
_symmetry_equiv_pos_as_xyz 
  x,y,z 
_cell_length_a                    27.26435481 
_cell_length_b                    32.65537186921812 
_cell_length_c                    37.53478444299813 
_cell_angle_alpha                 89.37000491456642 
_cell_angle_beta                  91.0973628373527 
_cell_angle_gamma                 90.05225137345884 
loop_ 
_atom_site_label 
_atom_site_type_symbol 
_atom_site_fract_x 
_atom_site_fract_y 
_atom_site_fract_z 
_atom_site_charge 
O1          O  0.17016949  0.13009081  0.10352556    -0.71900
O2          O  0.17075796  0.03645500  0.03421758    -0.72900
O3          O  0.17065716  0.12911632  0.02895364    -0.61500
O4          O  0.17038378  0.04676273  0.11014339    -0.70000
O5          O  0.08881317  0.04657244  0.10873273    -0.69500
O6          O  0.08940312  0.12897728  0.02753267    -0.60800
O7          O  0.08956481  0.03635450  0.03281881    -0.73300
O8          O  0.08845574  0.12988011  0.10205057    -0.72000
Cu9        Cu  0.17332001  0.08532559  0.06840282     1.04600
Cu10       Cu  0.08624978  0.08514569  0.06687038     1.04300
C11         C  0.12916756  0.14200342  0.11534974     0.94300
C12         C  0.13022682  0.01926269  0.02484511     0.93400
C13         C  0.13006891  0.14607198  0.01919455     0.85500
C14         C  0.12952996  0.03801080  0.12442342     0.91800
C15         C  0.12865657  0.12863917  0.81893780     0.87500
C16         C  0.17250520  0.12340282  0.79464484    -0.52700
C17         C  0.17169723  0.08720236  0.77616902     0.10400
C18         C  0.12769186  0.05965569  0.78548320     0.21400
C19         C  0.08352717  0.12340875  0.79462289    -0.53500
C20         C  0.08327035  0.08721936  0.77613781     0.10500
C21         C  0.12925794  0.09176337  0.84340342    -0.53000
C22         C  0.12877997  0.05593648  0.82633151     0.11100
H23         H  0.20013833  0.14696971  0.79219705     0.15600
H24         H  0.12731714  0.02929639  0.77301343     0.01300
H25         H  0.05582348  0.14699405  0.79215431     0.15900
H26         H  0.13002263  0.09368727  0.87237635     0.15700
O27         O  0.17074987  0.21345528  0.91636087    -0.71900
O28         O  0.17088259  0.29670118  0.99524268    -0.72900
O29         O  0.17074482  0.20396875  0.99159739    -0.61500
O30         O  0.17085100  0.29680368  0.91968350    -0.70000
O31         O  0.08918901  0.29680609  0.91875852    -0.69500
O32         O  0.08952546  0.20397923  0.99055675    -0.60800
O33         O  0.08965392  0.29661068  0.99425260    -0.73300
O34         O  0.08910273  0.21349617  0.91537860    -0.72000
Cu35       Cu  0.17364408  0.25265366  0.95664723     1.04600
Cu36       Cu  0.08656580  0.25264650  0.95559030     1.04300
C37         C  0.12985603  0.20407388  0.90155832     0.94300
C38         C  0.13028352  0.31324503  0.00414709     0.93400
C39         C  0.13012736  0.18643515  0.99939574     0.85500
C40         C  0.12995898  0.30794821  0.90571485     0.91800
C41         C  0.12920131  0.21935730  0.19834009     0.87500
C42         C  0.17444297  0.21953710  0.22279875    -0.52700
C43         C  0.17548462  0.25117150  0.24636412     0.10400
C44         C  0.13031508  0.28013914  0.24259909     0.21400
C45         C  0.08535178  0.21928203  0.22290711    -0.53500
C46         C  0.08548924  0.25093836  0.24647352     0.10500
C47         C  0.12855342  0.26044395  0.18002140    -0.53000
C48         C  0.12916858  0.29241609  0.20248342     0.11100
H49         H  0.20206301  0.19555092  0.22281237     0.15600
H50         H  0.13081926  0.30611157  0.26145311     0.01300
H51         H  0.05782235  0.19518399  0.22294242     0.15900
H52         H  0.12787197  0.26411804  0.15111972     0.15700
O53         O  0.21073990  0.29054749  0.52990087    -0.71900
O54         O  0.20946242  0.20191299  0.60582031    -0.72900
O55         O  0.20938477  0.28540236  0.60577511    -0.61500
O56         O  0.21087628  0.19765435  0.53067844    -0.70000
O57         O  0.04209461  0.19779252  0.53251940    -0.69500
O58         O  0.04101538  0.28547408  0.60748518    -0.60800
O59         O  0.04112815  0.20204966  0.60756679    -0.73300
O60         O  0.04195200  0.29054245  0.53171542    -0.72000
Cu61       Cu  0.20728738  0.24396093  0.56709045     1.04600
Cu62       Cu  0.04435611  0.24405495  0.56899763     1.04300
C63         C  0.25151195  0.30749088  0.52156672     0.94300
C64         C  0.25012578  0.19130114  0.62044638     0.93400
C65         C  0.25001484  0.29529068  0.62074070     0.85500
C66         C  0.25166847  0.18055772  0.52302842     0.91800
O67         O  0.04548240  0.04003971  0.41697567    -0.71900
O68         O  0.04301644  0.12370633  0.49553898    -0.72900
O69         O  0.04288798  0.03103168  0.49293088    -0.61500
O70         O  0.04583956  0.12339313  0.42077503    -0.70000
O71         O  0.21416973  0.12358420  0.41823545    -0.69500
O72         O  0.21170417  0.03105538  0.49050844    -0.60800
O73         O  0.21179895  0.12379642  0.49309315    -0.73300
O74         O  0.21390916  0.04019520  0.41452210    -0.72000
Cu75       Cu  0.04708832  0.07930531  0.45752105     1.04600
Cu76       Cu  0.21004492  0.07943928  0.45487581     1.04300
C77         C  0.00510882  0.03124267  0.40107632     0.94300
C78         C  0.00216485  0.14071345  0.50316228     0.93400
C79         C  0.00201813  0.01389609  0.50069048     0.85500
C80         C  0.00549161  0.13516059  0.40643320     0.91800
C81         C  0.00725112  0.21446621  0.32355520     0.87500
C82         C  0.21209610  0.21649801  0.29901729    -0.52700
C83         C  0.21121722  0.24991116  0.27671557     0.10400
C84         C  0.00643830  0.27852144  0.28165110     0.21400
C85         C  0.05121747  0.21628535  0.29909197    -0.53500
C86         C  0.05123555  0.24973068  0.27678207     0.10500
C87         C  0.00793286  0.25418446  0.34337497    -0.53000
C88         C  0.00743232  0.28775595  0.32212291     0.11100
H89         H  0.18437273  0.19257305  0.29804756     0.15600
H90         H  0.00604679  0.30588421  0.26381941     0.01300
H91         H  0.07868529  0.19224308  0.29817170     0.15900
H92         H  0.00840513  0.25576744  0.37236590     0.15700
C93         C  0.25049230  0.03637923  0.70468616     0.87500
C94         C  0.04577477  0.04114691  0.72912319    -0.52700
C95         C  0.04595415  0.07697067  0.74813979     0.10400
C96         C  0.00149081  0.10458121  0.73925436     0.21400
C97         C  0.20660519  0.04107969  0.72920603    -0.53500
C98         C  0.20751365  0.07692123  0.74820527     0.10500
C99         C  0.24981410  0.07386551  0.68088459    -0.53000
C100        C  0.25031759  0.10923215  0.69861397     0.11100
H101        H  0.07376417  0.01770654  0.73126887     0.15600
H102        H  0.00186821  0.13472587  0.75194408     0.01300
H103        H  0.17872536  0.01760920  0.73138961     0.15900
H104        H  0.24903321  0.07270420  0.65186912     0.15700
C105        C  0.00678990  0.32615344  0.33995430    -0.12300
C106        C  0.00606172  0.01291501  0.36661862    -0.13800
C107        C  0.00666844  0.15963103  0.37509272    -0.12300
C108        C  0.00739826  0.18080397  0.34893519    -0.13800
C109        C  0.24989549  0.00095159  0.68154786    -0.12300
C110        C  0.24966505  0.31523086  0.65435160    -0.13800
C111        C  0.24979536  0.16852246  0.65285331    -0.12300
C112        C  0.24994306  0.14625934  0.67836568    -0.13800
C113        C  0.12965356  0.18450984  0.86786717    -0.12300
C114        C  0.12923993  0.16476974  0.84111661    -0.13800
C115        C  0.12930325  0.01950530  0.84749736    -0.12300
C116        C  0.12975586  0.33117348  0.87345692    -0.13800
C117        C  0.12873112  0.18752241  0.17192880    -0.12300
C118        C  0.12881985  0.16697365  0.14583267    -0.13800
C119        C  0.12931859  0.33204447  0.18591499    -0.12300
C120        C  0.12938979  0.01971929  0.15933719    -0.13800
O121        O  0.17016949  0.46342418  0.10352554    -0.71900
O122        O  0.17075806  0.36978842  0.03421763    -0.72900
O123        O  0.17065735  0.46244960  0.02895364    -0.61500
O124        O  0.17038368  0.38009609  0.11014340    -0.70000
O125        O  0.08881308  0.37990577  0.10873274    -0.69500
O126        O  0.08940331  0.46231065  0.02753268    -0.60800
O127        O  0.08956489  0.36968786  0.03281879    -0.73300
O128        O  0.08845574  0.46321343  0.10205054    -0.72000
Cu129      Cu  0.17332001  0.41865895  0.06840284     1.04600
Cu130      Cu  0.08624986  0.41847904  0.06687037     1.04300
C131        C  0.12916754  0.47533676  0.11534974     0.94300
C132        C  0.13022676  0.35259608  0.02484511     0.93400
C133        C  0.13006909  0.47940528  0.01919453     0.85500
C134        C  0.12952986  0.37134415  0.12442343     0.91800
C135        C  0.12865669  0.46197258  0.81893778     0.87500
C136        C  0.17250493  0.45673595  0.79464488    -0.52700
C137        C  0.17169734  0.42053582  0.77616902     0.10400
C138        C  0.12769190  0.39298906  0.78548319     0.21400
C139        C  0.08352726  0.45674211  0.79462284    -0.53500
C140        C  0.08327042  0.42055272  0.77613777     0.10500
C141        C  0.12925796  0.42509673  0.84340341    -0.53000
C142        C  0.12878006  0.38926985  0.82633150     0.11100
H143        H  0.20014124  0.48030522  0.79219681     0.15600
H144        H  0.12731705  0.36262992  0.77301352     0.01300
H145        H  0.05582358  0.48032721  0.79215435     0.15900
H146        H  0.13002249  0.42702065  0.87237635     0.15700
O147        O  0.17075001  0.54678863  0.91636082    -0.71900
O148        O  0.17088262  0.63003453  0.99524273    -0.72900
O149        O  0.17074508  0.53730202  0.99159740    -0.61500
O150        O  0.17085097  0.63013706  0.91968351    -0.70000
O151        O  0.08918899  0.63013927  0.91875853    -0.69500
O152        O  0.08952571  0.53731245  0.99055675    -0.60800
O153        O  0.08965393  0.62994387  0.99425257    -0.73300
O154        O  0.08910286  0.54682939  0.91537865    -0.72000
Cu155      Cu  0.17364414  0.58598701  0.95664723     1.04600
Cu156      Cu  0.08656590  0.58597969  0.95559031     1.04300
C157        C  0.12985616  0.53740719  0.90155831     0.94300
C158        C  0.13028350  0.64657829  0.00414711     0.93400
C159        C  0.13012767  0.51976840  0.99939573     0.85500
C160        C  0.12995892  0.64128151  0.90571486     0.91800
C161        C  0.12920135  0.55269073  0.19834002     0.87500
C162        C  0.17444289  0.55287046  0.22279872    -0.52700
C163        C  0.17548467  0.58450478  0.24636411     0.10400
C164        C  0.13031513  0.61347249  0.24259912     0.21400
C165        C  0.08535151  0.55261509  0.22290711    -0.53500
C166        C  0.08548936  0.58427176  0.24647355     0.10500
C167        C  0.12855340  0.59377730  0.18002142    -0.53000
C168        C  0.12916863  0.62574943  0.20248340     0.11100
H169        H  0.20206308  0.52888364  0.22281259     0.15600
H170        H  0.13081939  0.63944483  0.26145302     0.01300
H171        H  0.05782499  0.52851940  0.22294252     0.15900
H172        H  0.12787156  0.59745142  0.15111930     0.15700
O173        O  0.21073983  0.62388081  0.52990089    -0.71900
O174        O  0.20946244  0.53524633  0.60582034    -0.72900
O175        O  0.20938471  0.61873570  0.60577509    -0.61500
O176        O  0.21087639  0.53098768  0.53067842    -0.70000
O177        O  0.04209469  0.53112584  0.53251938    -0.69500
O178        O  0.04101557  0.61880744  0.60748520    -0.60800
O179        O  0.04112841  0.53538298  0.60756683    -0.73300
O180        O  0.04195203  0.62387581  0.53171540    -0.72000
Cu181      Cu  0.20728736  0.57729427  0.56709045     1.04600
Cu182      Cu  0.04435625  0.57738828  0.56899762     1.04300
C183        C  0.25151190  0.64082416  0.52156673     0.94300
C184        C  0.25012581  0.52463445  0.62044638     0.93400
C185        C  0.25001477  0.62862398  0.62074069     0.85500
C186        C  0.25166855  0.51389101  0.52302841     0.91800
O187        O  0.04548251  0.37337306  0.41697566    -0.71900
O188        O  0.04301636  0.45703964  0.49553896    -0.72900
O189        O  0.04288796  0.36436505  0.49293086    -0.61500
O190        O  0.04583961  0.45672646  0.42077505    -0.70000
O191        O  0.21416964  0.45691755  0.41823542    -0.69500
O192        O  0.21170417  0.36438874  0.49050844    -0.60800
O193        O  0.21179897  0.45712979  0.49309315    -0.73300
O194        O  0.21390905  0.37352853  0.41452213    -0.72000
Cu195      Cu  0.04708829  0.41263866  0.45752104     1.04600
Cu196      Cu  0.21004488  0.41277262  0.45487582     1.04300
C197        C  0.00510894  0.36457602  0.40107633     0.94300
C198        C  0.00216476  0.47404680  0.50316228     0.93400
C199        C  0.00201811  0.34722945  0.50069047     0.85500
C200        C  0.00549169  0.46849393  0.40643321     0.91800
C201        C  0.00725115  0.54779955  0.32355520     0.87500
C202        C  0.21209611  0.54983133  0.29901733    -0.52700
C203        C  0.21121729  0.58324448  0.27671558     0.10400
C204        C  0.00643839  0.61185477  0.28165110     0.21400
C205        C  0.05121751  0.54961868  0.29909195    -0.53500
C206        C  0.05123560  0.58306398  0.27678206     0.10500
C207        C  0.00793291  0.58751782  0.34337497    -0.53000
C208        C  0.00743240  0.62108930  0.32212289     0.11100
H209        H  0.18437316  0.52590667  0.29804759     0.15600
H210        H  0.00604684  0.63921751  0.26381939     0.01300
H211        H  0.07868540  0.52557628  0.29817158     0.15900
H212        H  0.00840527  0.58910080  0.37236585     0.15700
C213        C  0.25049224  0.36971263  0.70468617     0.87500
C214        C  0.04577494  0.37447995  0.72912325    -0.52700
C215        C  0.04595401  0.41030411  0.74813979     0.10400
C216        C  0.00149077  0.43791454  0.73925431     0.21400
C217        C  0.20660509  0.37441292  0.72920609    -0.53500
C218        C  0.20751367  0.41025458  0.74820531     0.10500
C219        C  0.24981409  0.40719880  0.68088456    -0.53000
C220        C  0.25031763  0.44256547  0.69861393     0.11100
H221        H  0.07376146  0.35104160  0.73126872     0.15600
H222        H  0.00186807  0.46805948  0.75194417     0.01300
H223        H  0.17872624  0.35094310  0.73138963     0.15900
H224        H  0.24903311  0.40603750  0.65186933     0.15700
C225        C  0.00678999  0.65948679  0.33995431    -0.12300
C226        C  0.00606181  0.34624833  0.36661864    -0.13800
C227        C  0.00666863  0.49296437  0.37509272    -0.12300
C228        C  0.00739823  0.51413733  0.34893519    -0.13800
C229        C  0.24989556  0.33428494  0.68154790    -0.12300
C230        C  0.24966500  0.64856420  0.65435157    -0.13800
C231        C  0.24979545  0.50185580  0.65285330    -0.12300
C232        C  0.24994308  0.47959264  0.67836564    -0.13800
C233        C  0.12965359  0.51784319  0.86786715    -0.12300
C234        C  0.12923987  0.49810310  0.84111659    -0.13800
C235        C  0.12930336  0.35283866  0.84749734    -0.12300
C236        C  0.12975568  0.66450681  0.87345696    -0.13800
C237        C  0.12873107  0.52085579  0.17192881    -0.12300
C238        C  0.12881985  0.50030695  0.14583271    -0.13800
C239        C  0.12931862  0.66537778  0.18591502    -0.12300
C240        C  0.12938979  0.35305262  0.15933718    -0.13800
O241        O  0.17016937  0.79675753  0.10352553    -0.71900
O242        O  0.17075795  0.70312173  0.03421760    -0.72900
O243        O  0.17065730  0.79578293  0.02895365    -0.61500
O244        O  0.17038363  0.71342945  0.11014340    -0.70000
O245        O  0.08881303  0.71323909  0.10873274    -0.69500
O246        O  0.08940325  0.79564397  0.02753267    -0.60800
O247        O  0.08956480  0.70302113  0.03281876    -0.73300
O248        O  0.08845562  0.79654674  0.10205053    -0.72000
Cu249      Cu  0.17331990  0.75199230  0.06840283     1.04600
Cu250      Cu  0.08624980  0.75181235  0.06687035     1.04300
C251        C  0.12916742  0.80867010  0.11534973     0.94300
C252        C  0.13022666  0.68592936  0.02484510     0.93400
C253        C  0.13006908  0.81273858  0.01919452     0.85500
C254        C  0.12952982  0.70467744  0.12442342     0.91800
C255        C  0.12865690  0.79530585  0.81893781     0.87500
C256        C  0.17250506  0.79006926  0.79464485    -0.52700
C257        C  0.17169744  0.75386912  0.77616898     0.10400
C258        C  0.12769200  0.72632238  0.78548320     0.21400
C259        C  0.08352702  0.79007573  0.79462285    -0.53500
C260        C  0.08327060  0.75388595  0.77613779     0.10500
C261        C  0.12925810  0.75843007  0.84340343    -0.53000
C262        C  0.12878014  0.72260317  0.82633153     0.11100
H263        H  0.20014112  0.81363835  0.79219675     0.15600
H264        H  0.12731713  0.69596304  0.77301345     0.01300
H265        H  0.05582673  0.81365851  0.79215460     0.15900
H266        H  0.13002310  0.76035398  0.87237642     0.15700
O267        O  0.17074996  0.88012198  0.91636082    -0.71900
O268        O  0.17088251  0.96336785  0.99524274    -0.72900
O269        O  0.17074498  0.87063535  0.99159739    -0.61500
O270        O  0.17085093  0.96347041  0.91968350    -0.70000
O271        O  0.08918895  0.96347262  0.91875854    -0.69500
O272        O  0.08952562  0.87064572  0.99055678    -0.60800
O273        O  0.08965384  0.96327724  0.99425262    -0.73300
O274        O  0.08910282  0.88016272  0.91537862    -0.72000
Cu275      Cu  0.17364412  0.91932035  0.95664723     1.04600
Cu276      Cu  0.08656581  0.91931301  0.95559033     1.04300
C277        C  0.12985613  0.87074054  0.90155830     0.94300
C278        C  0.13028323  0.97991165  0.00414712     0.93400
C279        C  0.13012755  0.85310170  0.99939573     0.85500
C280        C  0.12995887  0.97461485  0.90571487     0.91800
C281        C  0.12920114  0.88602398  0.19834006     0.87500
C282        C  0.17444283  0.88620374  0.22279872    -0.52700
C283        C  0.17548461  0.91783808  0.24636408     0.10400
C284        C  0.13031504  0.94680578  0.24259912     0.21400
C285        C  0.08535166  0.88594869  0.22290716    -0.53500
C286        C  0.08548917  0.91760498  0.24647355     0.10500
C287        C  0.12855331  0.92711063  0.18002144    -0.53000
C288        C  0.12916846  0.95908274  0.20248341     0.11100
H289        H  0.20206294  0.86221698  0.22281258     0.15600
H290        H  0.13081945  0.97277803  0.26145297     0.01300
H291        H  0.05782215  0.86185057  0.22294250     0.15900
H292        H  0.12787142  0.93078476  0.15111934     0.15700
O293        O  0.21073984  0.95721411  0.52990090    -0.71900
O294        O  0.20946236  0.86857967  0.60582035    -0.72900
O295        O  0.20938457  0.95206904  0.60577508    -0.61500
O296        O  0.21087640  0.86432103  0.53067846    -0.70000
O297        O  0.04209475  0.86445913  0.53251945    -0.69500
O298        O  0.04101544  0.95214063  0.60748520    -0.60800
O299        O  0.04112830  0.86871620  0.60756679    -0.73300
O300        O  0.04195198  0.95720901  0.53171539    -0.72000
Cu301      Cu  0.20728734  0.91062759  0.56709048     1.04600
Cu302      Cu  0.04435619  0.91072151  0.56899764     1.04300
C303        C  0.25151200  0.97415749  0.52156673     0.94300
C304        C  0.25012572  0.85796779  0.62044639     0.93400
C305        C  0.25001464  0.96195734  0.62074067     0.85500
C306        C  0.25166846  0.84722442  0.52302843     0.91800
O307        O  0.04548246  0.70670641  0.41697566    -0.71900
O308        O  0.04301652  0.79037299  0.49553898    -0.72900
O309        O  0.04288798  0.69769838  0.49293087    -0.61500
O310        O  0.04583956  0.79005982  0.42077503    -0.70000
O311        O  0.21416961  0.79025090  0.41823555    -0.69500
O312        O  0.21170415  0.69772210  0.49050856    -0.60800
O313        O  0.21179904  0.79046308  0.49309328    -0.73300
O314        O  0.21390903  0.70686187  0.41452225    -0.72000
Cu315      Cu  0.04708838  0.74597199  0.45752104     1.04600
Cu316      Cu  0.21004497  0.74610597  0.45487596     1.04300
C317        C  0.00510886  0.69790937  0.40107633     0.94300
C318        C  0.00216508  0.80738012  0.50316228     0.93400
C319        C  0.00201803  0.68056279  0.50069047     0.85500
C320        C  0.00549161  0.80182728  0.40643321     0.91800
C321        C  0.00725112  0.88113299  0.32355521     0.87500
C322        C  0.21209599  0.88316467  0.29901735    -0.52700
C323        C  0.21121724  0.91657781  0.27671556     0.10400
C324        C  0.00643836  0.94518812  0.28165110     0.21400
C325        C  0.05121754  0.88295192  0.29909200    -0.53500
C326        C  0.05123556  0.91639735  0.27678208     0.10500
C327        C  0.00793290  0.92085115  0.34337498    -0.53000
C328        C  0.00743245  0.95442268  0.32212290     0.11100
H329        H  0.18437306  0.85924008  0.29804760     0.15600
H330        H  0.00604676  0.97255115  0.26381918     0.01300
H331        H  0.07868453  0.85891023  0.29817163     0.15900
H332        H  0.00840519  0.92243414  0.37236589     0.15700
C333        C  0.25049242  0.70304590  0.70468619     0.87500
C334        C  0.04577483  0.70781355  0.72912317    -0.52700
C335        C  0.04595423  0.74363739  0.74813976     0.10400
C336        C  0.00149089  0.77124787  0.73925436     0.21400
C337        C  0.20660517  0.70774628  0.72920603    -0.53500
C338        C  0.20751372  0.74358790  0.74820525     0.10500
C339        C  0.24981422  0.74053213  0.68088457    -0.53000
C340        C  0.25031766  0.77589878  0.69861394     0.11100
H341        H  0.07376392  0.68437334  0.73126876     0.15600
H342        H  0.00186818  0.80139251  0.75194406     0.01300
H343        H  0.17872592  0.68427618  0.73138960     0.15900
H344        H  0.24903371  0.73937082  0.65186937     0.15700
C345        C  0.00678996  0.99282012  0.33995429    -0.12300
C346        C  0.00606173  0.67958169  0.36661864    -0.13800
C347        C  0.00666849  0.82629772  0.37509273    -0.12300
C348        C  0.00739807  0.84747066  0.34893520    -0.13800
C349        C  0.24989560  0.66761826  0.68154788    -0.12300
C350        C  0.24966486  0.98189759  0.65435153    -0.13800
C351        C  0.24979534  0.83518914  0.65285330    -0.12300
C352        C  0.24994318  0.81292598  0.67836565    -0.13800
C353        C  0.12965371  0.85117654  0.86786715    -0.12300
C354        C  0.12923996  0.83143644  0.84111659    -0.13800
C355        C  0.12930325  0.68617199  0.84749737    -0.12300
C356        C  0.12975570  0.99784014  0.87345696    -0.13800
C357        C  0.12873098  0.85418913  0.17192880    -0.12300
C358        C  0.12881972  0.83364029  0.14583270    -0.13800
C359        C  0.12931856  0.99871112  0.18591500    -0.12300
C360        C  0.12938971  0.68638593  0.15933720    -0.13800
O361        O  0.42016953  0.13009081  0.10352556    -0.71900
O362        O  0.42075801  0.03645500  0.03421758    -0.72900
O363        O  0.42065721  0.12911632  0.02895364    -0.61500
O364        O  0.42038383  0.04676273  0.11014339    -0.70000
O365        O  0.33881322  0.04657244  0.10873273    -0.69500
O366        O  0.33940317  0.12897728  0.02753267    -0.60800
O367        O  0.33956485  0.03635450  0.03281881    -0.73300
O368        O  0.33845579  0.12988011  0.10205057    -0.72000
Cu369      Cu  0.42332006  0.08532559  0.06840282     1.04600
Cu370      Cu  0.33624983  0.08514569  0.06687038     1.04300
C371        C  0.37916760  0.14200342  0.11534974     0.94300
C372        C  0.38022687  0.01926269  0.02484511     0.93400
C373        C  0.38006896  0.14607198  0.01919455     0.85500
C374        C  0.37953001  0.03801080  0.12442342     0.91800
C375        C  0.37865686  0.12863915  0.81893782     0.87500
C376        C  0.42250500  0.12340261  0.79464483    -0.52700
C377        C  0.42169739  0.08720246  0.77616897     0.10400
C378        C  0.37769196  0.05965569  0.78548320     0.21400
C379        C  0.33352697  0.12340900  0.79462289    -0.53500
C380        C  0.33327054  0.08721924  0.77613781     0.10500
C381        C  0.37925808  0.09176337  0.84340343    -0.53000
C382        C  0.37878003  0.05593647  0.82633152     0.11100
H383        H  0.45014099  0.14697167  0.79219675     0.15600
H384        H  0.37731714  0.02929634  0.77301343     0.01300
H385        H  0.30582668  0.14699178  0.79215465     0.15900
H386        H  0.38002301  0.09368728  0.87237642     0.15700
O387        O  0.42074986  0.21345527  0.91636085    -0.71900
O388        O  0.42088250  0.29670121  0.99524269    -0.72900
O389        O  0.42074487  0.20396875  0.99159738    -0.61500
O390        O  0.42085097  0.29680369  0.91968348    -0.70000
O391        O  0.33918898  0.29680609  0.91875854    -0.69500
O392        O  0.33952550  0.20397922  0.99055676    -0.60800
O393        O  0.33965384  0.29661067  0.99425259    -0.73300
O394        O  0.33910272  0.21349617  0.91537861    -0.72000
Cu395      Cu  0.42364411  0.25265368  0.95664720     1.04600
Cu396      Cu  0.33656579  0.25264649  0.95559032     1.04300
C397        C  0.37985602  0.20407388  0.90155832     0.94300
C398        C  0.38028342  0.31324503  0.00414710     0.93400
C399        C  0.38012741  0.18643515  0.99939573     0.85500
C400        C  0.37995894  0.30794820  0.90571485     0.91800
C401        C  0.37920135  0.21935730  0.19834010     0.87500
C402        C  0.42444302  0.21953710  0.22279876    -0.52700
C403        C  0.42548467  0.25117150  0.24636412     0.10400
C404        C  0.38031512  0.28013913  0.24259910     0.21400
C405        C  0.33535181  0.21928203  0.22290713    -0.53500
C406        C  0.33548927  0.25093835  0.24647355     0.10500
C407        C  0.37855347  0.26044395  0.18002140    -0.53000
C408        C  0.37916862  0.29241609  0.20248342     0.11100
H409        H  0.45206305  0.19555092  0.22281237     0.15600
H410        H  0.38081932  0.30611157  0.26145311     0.01300
H411        H  0.30782239  0.19518398  0.22294243     0.15900
H412        H  0.37787202  0.26411804  0.15111972     0.15700
O413        O  0.46073988  0.29054747  0.52990088    -0.71900
O414        O  0.45946246  0.20191298  0.60582031    -0.72900
O415        O  0.45938464  0.28540234  0.60577509    -0.61500
O416        O  0.46087637  0.19765436  0.53067844    -0.70000
O417        O  0.29209460  0.19779250  0.53251938    -0.69500
O418        O  0.29101556  0.28547407  0.60748517    -0.60800
O419        O  0.29112832  0.20204964  0.60756681    -0.73300
O420        O  0.29195205  0.29054244  0.53171542    -0.72000
Cu421      Cu  0.45728738  0.24396092  0.56709046     1.04600
Cu422      Cu  0.29435619  0.24405494  0.56899762     1.04300
C423        C  0.50151197  0.30749088  0.52156672     0.94300
C424        C  0.50012583  0.19130114  0.62044638     0.93400
C425        C  0.50001467  0.29529068  0.62074070     0.85500
C426        C  0.50166855  0.18055772  0.52302842     0.91800
O427        O  0.29548248  0.04003975  0.41697564    -0.71900
O428        O  0.29301638  0.12370633  0.49553898    -0.72900
O429        O  0.29288797  0.03103170  0.49293086    -0.61500
O430        O  0.29583964  0.12339314  0.42077504    -0.70000
O431        O  0.46416971  0.12358419  0.41823546    -0.69500
O432        O  0.46170411  0.03105543  0.49050842    -0.60800
O433        O  0.46179900  0.12379642  0.49309316    -0.73300
O434        O  0.46390920  0.04019521  0.41452213    -0.72000
Cu435      Cu  0.29708834  0.07930534  0.45752104     1.04600
Cu436      Cu  0.46004496  0.07943929  0.45487581     1.04300
C437        C  0.25510890  0.03124263  0.40107632     0.94300
C438        C  0.25216479  0.14071345  0.50316228     0.93400
C439        C  0.25201808  0.01389609  0.50069048     0.85500
C440        C  0.25549170  0.13516059  0.40643321     0.91800
C441        C  0.25725105  0.21446620  0.32355520     0.87500
C442        C  0.46209617  0.21649801  0.29901728    -0.52700
C443        C  0.46121729  0.24991114  0.27671559     0.10400
C444        C  0.25643828  0.27852144  0.28165110     0.21400
C445        C  0.30121744  0.21628538  0.29909199    -0.53500
C446        C  0.30123555  0.24973066  0.27678207     0.10500
C447        C  0.25793281  0.25418446  0.34337497    -0.53000
C448        C  0.25743236  0.28775595  0.32212290     0.11100
H449        H  0.43437278  0.19257307  0.29804756     0.15600
H450        H  0.25604672  0.30588420  0.26381939     0.01300
H451        H  0.32868554  0.19224282  0.29817169     0.15900
H452        H  0.25840509  0.25576743  0.37236585     0.15700
C453        C  0.50049233  0.03637924  0.70468615     0.87500
C454        C  0.29577476  0.04114688  0.72912318    -0.52700
C455        C  0.29595413  0.07697068  0.74813980     0.10400
C456        C  0.25149081  0.10458126  0.73925443     0.21400
C457        C  0.45660517  0.04107965  0.72920602    -0.53500
C458        C  0.45751371  0.07692123  0.74820527     0.10500
C459        C  0.49981415  0.07386551  0.68088459    -0.53000
C460        C  0.50031760  0.10923215  0.69861396     0.11100
H461        H  0.32376388  0.01770664  0.73126881     0.15600
H462        H  0.25186813  0.13472528  0.75194382     0.01300
H463        H  0.42872576  0.01760947  0.73138959     0.15900
H464        H  0.49903358  0.07270420  0.65186908     0.15700
C465        C  0.25678988  0.32615343  0.33995430    -0.12300
C466        C  0.25606182  0.01291506  0.36661859    -0.13800
C467        C  0.25666851  0.15963102  0.37509272    -0.12300
C468        C  0.25739822  0.18080397  0.34893519    -0.13800
C469        C  0.49989553  0.00095158  0.68154786    -0.12300
C470        C  0.49966477  0.31523087  0.65435160    -0.13800
C471        C  0.49979541  0.16852246  0.65285331    -0.12300
C472        C  0.49994311  0.14625934  0.67836568    -0.13800
C473        C  0.37965358  0.18450984  0.86786718    -0.12300
C474        C  0.37923987  0.16476974  0.84111661    -0.13800
C475        C  0.37930328  0.01950530  0.84749737    -0.12300
C476        C  0.37975587  0.33117348  0.87345693    -0.13800
C477        C  0.37873116  0.18752241  0.17192880    -0.12300
C478        C  0.37881990  0.16697365  0.14583267    -0.13800
C479        C  0.37931860  0.33204446  0.18591499    -0.12300
C480        C  0.37938984  0.01971929  0.15933719    -0.13800
O481        O  0.42016960  0.46342418  0.10352555    -0.71900
O482        O  0.42075795  0.36978839  0.03421762    -0.72900
O483        O  0.42065733  0.46244964  0.02895363    -0.61500
O484        O  0.42038377  0.38009610  0.11014340    -0.70000
O485        O  0.33881317  0.37990577  0.10873274    -0.69500
O486        O  0.33940329  0.46231062  0.02753269    -0.60800
O487        O  0.33956480  0.36968787  0.03281880    -0.73300
O488        O  0.33845584  0.46321343  0.10205054    -0.72000
Cu489      Cu  0.42332003  0.41865895  0.06840283     1.04600
Cu490      Cu  0.33624984  0.41847905  0.06687039     1.04300
C491        C  0.37916766  0.47533677  0.11534973     0.94300
C492        C  0.38022666  0.35259608  0.02484511     0.93400
C493        C  0.38006910  0.47940528  0.01919453     0.85500
C494        C  0.37952996  0.37134415  0.12442343     0.91800
C495        C  0.37865672  0.46197257  0.81893780     0.87500
C496        C  0.42250496  0.45673595  0.79464490    -0.52700
C497        C  0.42169737  0.42053584  0.77616903     0.10400
C498        C  0.37769193  0.39298906  0.78548320     0.21400
C499        C  0.33352729  0.45674211  0.79462285    -0.53500
C500        C  0.33327046  0.42055273  0.77613776     0.10500
C501        C  0.37925801  0.42509672  0.84340342    -0.53000
C502        C  0.37878008  0.38926985  0.82633151     0.11100
H503        H  0.45014123  0.48030516  0.79219682     0.15600
H504        H  0.37731707  0.36262990  0.77301353     0.01300
H505        H  0.30582364  0.48032722  0.79215434     0.15900
H506        H  0.38002252  0.42702064  0.87237636     0.15700
O507        O  0.42074988  0.54678863  0.91636082    -0.71900
O508        O  0.42088261  0.63003452  0.99524272    -0.72900
O509        O  0.42074498  0.53730203  0.99159739    -0.61500
O510        O  0.42085097  0.63013705  0.91968352    -0.70000
O511        O  0.33918899  0.63013928  0.91875851    -0.69500
O512        O  0.33952561  0.53731241  0.99055676    -0.60800
O513        O  0.33965393  0.62994388  0.99425258    -0.73300
O514        O  0.33910273  0.54682938  0.91537863    -0.72000
Cu515      Cu  0.42364415  0.58598701  0.95664723     1.04600
Cu516      Cu  0.33656577  0.58597968  0.95559030     1.04300
C517        C  0.37985603  0.53740719  0.90155831     0.94300
C518        C  0.38028351  0.64657829  0.00414711     0.93400
C519        C  0.38012753  0.51976840  0.99939574     0.85500
C520        C  0.37995892  0.64128150  0.90571486     0.91800
C521        C  0.37920140  0.55269075  0.19834001     0.87500
C522        C  0.42444290  0.55287052  0.22279873    -0.52700
C523        C  0.42548471  0.58450484  0.24636410     0.10400
C524        C  0.38031515  0.61347250  0.24259913     0.21400
C525        C  0.33535150  0.55261511  0.22290707    -0.53500
C526        C  0.33548938  0.58427179  0.24647353     0.10500
C527        C  0.37855345  0.59377736  0.18002142    -0.53000
C528        C  0.37916864  0.62574947  0.20248343     0.11100
H529        H  0.45206340  0.52888346  0.22281258     0.15600
H530        H  0.38081935  0.63944483  0.26145307     0.01300
H531        H  0.30782513  0.52851949  0.22294249     0.15900
H532        H  0.37787162  0.59745153  0.15111929     0.15700
O533        O  0.46073984  0.62388082  0.52990088    -0.71900
O534        O  0.45946231  0.53524632  0.60582034    -0.72900
O535        O  0.45938469  0.61873571  0.60577510    -0.61500
O536        O  0.46087637  0.53098766  0.53067842    -0.70000
O537        O  0.29209470  0.53112574  0.53251940    -0.69500
O538        O  0.29101549  0.61880728  0.60748520    -0.60800
O539        O  0.29112836  0.53538286  0.60756679    -0.73300
O540        O  0.29195200  0.62387566  0.53171540    -0.72000
Cu541      Cu  0.45728732  0.57729427  0.56709045     1.04600
Cu542      Cu  0.29435621  0.57738815  0.56899763     1.04300
C543        C  0.50151192  0.64082416  0.52156673     0.94300
C544        C  0.50012568  0.52463444  0.62044638     0.93400
C545        C  0.50001476  0.62862398  0.62074069     0.85500
C546        C  0.50166855  0.51389101  0.52302841     0.91800
O547        O  0.29548235  0.37337306  0.41697567    -0.71900
O548        O  0.29301639  0.45703965  0.49553896    -0.72900
O549        O  0.29288799  0.36436504  0.49293087    -0.61500
O550        O  0.29583956  0.45672645  0.42077506    -0.70000
O551        O  0.46416975  0.45691753  0.41823545    -0.69500
O552        O  0.46170414  0.36438872  0.49050844    -0.60800
O553        O  0.46179901  0.45712978  0.49309315    -0.73300
O554        O  0.46390909  0.37352852  0.41452213    -0.72000
Cu555      Cu  0.29708831  0.41263866  0.45752105     1.04600
Cu556      Cu  0.46004488  0.41277262  0.45487582     1.04300
C557        C  0.25510878  0.36457601  0.40107632     0.94300
C558        C  0.25216483  0.47404679  0.50316227     0.93400
C559        C  0.25201819  0.34722945  0.50069047     0.85500
C560        C  0.25549164  0.46849393  0.40643321     0.91800
C561        C  0.25725121  0.54779956  0.32355519     0.87500
C562        C  0.46209614  0.54983143  0.29901735    -0.52700
C563        C  0.46121727  0.58324453  0.27671559     0.10400
C564        C  0.25643840  0.61185477  0.28165109     0.21400
C565        C  0.30121757  0.54961870  0.29909195    -0.53500
C566        C  0.30123564  0.58306398  0.27678205     0.10500
C567        C  0.25793297  0.58751781  0.34337496    -0.53000
C568        C  0.25743243  0.62108931  0.32212290     0.11100
H569        H  0.43437246  0.52590628  0.29804763     0.15600
H570        H  0.25604689  0.63921753  0.26381942     0.01300
H571        H  0.32868553  0.52557627  0.29817156     0.15900
H572        H  0.25840531  0.58910080  0.37236589     0.15700
C573        C  0.50049217  0.36971264  0.70468615     0.87500
C574        C  0.29577505  0.37448002  0.72912319    -0.52700
C575        C  0.29595411  0.41030416  0.74813974     0.10400
C576        C  0.25149079  0.43791455  0.73925433     0.21400
C577        C  0.45660508  0.37441298  0.72920608    -0.53500
C578        C  0.45751366  0.41025459  0.74820531     0.10500
C579        C  0.49981405  0.40719882  0.68088456    -0.53000
C580        C  0.50031763  0.44256548  0.69861392     0.11100
H581        H  0.32376163  0.35104164  0.73126867     0.15600
H582        H  0.25186805  0.46805944  0.75194417     0.01300
H583        H  0.42872598  0.35094291  0.73138971     0.15900
H584        H  0.49903321  0.40603748  0.65186912     0.15700
C585        C  0.25678991  0.65948680  0.33995432    -0.12300
C586        C  0.25606169  0.34624833  0.36661863    -0.13800
C587        C  0.25666862  0.49296437  0.37509272    -0.12300
C588        C  0.25739831  0.51413733  0.34893519    -0.13800
C589        C  0.49989557  0.33428497  0.68154789    -0.12300
C590        C  0.49966501  0.64856420  0.65435158    -0.13800
C591        C  0.49979538  0.50185581  0.65285333    -0.12300
C592        C  0.49994310  0.47959266  0.67836567    -0.13800
C593        C  0.37965352  0.51784319  0.86786716    -0.12300
C594        C  0.37923991  0.49810310  0.84111660    -0.13800
C595        C  0.37930329  0.35283866  0.84749735    -0.12300
C596        C  0.37975573  0.66450682  0.87345695    -0.13800
C597        C  0.37873109  0.52085578  0.17192879    -0.12300
C598        C  0.37881988  0.50030700  0.14583267    -0.13800
C599        C  0.37931854  0.66537782  0.18591503    -0.12300
C600        C  0.37938982  0.35305262  0.15933718    -0.13800
O601        O  0.42016942  0.79675753  0.10352553    -0.71900
O602        O  0.42075800  0.70312172  0.03421761    -0.72900
O603        O  0.42065736  0.79578292  0.02895366    -0.61500
O604        O  0.42038360  0.71342945  0.11014342    -0.70000
O605        O  0.33881301  0.71323909  0.10873272    -0.69500
O606        O  0.33940330  0.79564398  0.02753266    -0.60800
O607        O  0.33956484  0.70302114  0.03281876    -0.73300
O608        O  0.33845567  0.79654674  0.10205053    -0.72000
Cu609      Cu  0.42331994  0.75199228  0.06840285     1.04600
Cu610      Cu  0.33624984  0.75181237  0.06687034     1.04300
C611        C  0.37916746  0.80867010  0.11534973     0.94300
C612        C  0.38022670  0.68592936  0.02484510     0.93400
C613        C  0.38006914  0.81273859  0.01919452     0.85500
C614        C  0.37952979  0.70467744  0.12442341     0.91800
C615        C  0.37865677  0.79530594  0.81893779     0.87500
C616        C  0.42250498  0.79006931  0.79464483    -0.52700
C617        C  0.42169733  0.75386917  0.77616897     0.10400
C618        C  0.37769196  0.72632242  0.78548323     0.21400
C619        C  0.33352732  0.79007545  0.79462291    -0.53500
C620        C  0.33327044  0.75388610  0.77613782     0.10500
C621        C  0.37925807  0.75843009  0.84340342    -0.53000
C622        C  0.37878012  0.72260321  0.82633152     0.11100
H623        H  0.45014101  0.81363834  0.79219677     0.15600
H624        H  0.37731702  0.69596307  0.77301344     0.01300
H625        H  0.30582334  0.81366084  0.79215437     0.15900
H626        H  0.38002316  0.76035400  0.87237636     0.15700
O627        O  0.42075001  0.88012198  0.91636083    -0.71900
O628        O  0.42088255  0.96336784  0.99524275    -0.72900
O629        O  0.42074505  0.87063535  0.99159739    -0.61500
O630        O  0.42085087  0.96347041  0.91968351    -0.70000
O631        O  0.33918888  0.96347261  0.91875855    -0.69500
O632        O  0.33952568  0.87064573  0.99055678    -0.60800
O633        O  0.33965388  0.96327725  0.99425262    -0.73300
O634        O  0.33910286  0.88016272  0.91537862    -0.72000
Cu635      Cu  0.42364412  0.91932035  0.95664723     1.04600
Cu636      Cu  0.33656586  0.91931301  0.95559033     1.04300
C637        C  0.37985618  0.87074054  0.90155830     0.94300
C638        C  0.38028327  0.97991165  0.00414712     0.93400
C639        C  0.38012761  0.85310171  0.99939573     0.85500
C640        C  0.37995879  0.97461485  0.90571487     0.91800
C641        C  0.37920118  0.88602397  0.19834006     0.87500
C642        C  0.42444287  0.88620375  0.22279873    -0.52700
C643        C  0.42548462  0.91783807  0.24636409     0.10400
C644        C  0.38031506  0.94680577  0.24259912     0.21400
C645        C  0.33535169  0.88594868  0.22290714    -0.53500
C646        C  0.33548919  0.91760499  0.24647352     0.10500
C647        C  0.37855335  0.92711063  0.18002144    -0.53000
C648        C  0.37916850  0.95908274  0.20248342     0.11100
H649        H  0.45206297  0.86221701  0.22281259     0.15600
H650        H  0.38081943  0.97277801  0.26145299     0.01300
H651        H  0.30782213  0.86185055  0.22294247     0.15900
H652        H  0.37787148  0.93078476  0.15111936     0.15700
O653        O  0.46073973  0.95721413  0.52990089    -0.71900
O654        O  0.45946236  0.86857968  0.60582033    -0.72900
O655        O  0.45938462  0.95206905  0.60577508    -0.61500
O656        O  0.46087638  0.86432107  0.53067846    -0.70000
O657        O  0.29209473  0.86445916  0.53251945    -0.69500
O658        O  0.29101537  0.95214063  0.60748520    -0.60800
O659        O  0.29112828  0.86871620  0.60756678    -0.73300
O660        O  0.29195200  0.95720903  0.53171539    -0.72000
Cu661      Cu  0.45728734  0.91062762  0.56709047     1.04600
Cu662      Cu  0.29435617  0.91072153  0.56899763     1.04300
C663        C  0.50151178  0.97415750  0.52156673     0.94300
C664        C  0.50012572  0.85796780  0.62044639     0.93400
C665        C  0.50001468  0.96195734  0.62074067     0.85500
C666        C  0.50166848  0.84722442  0.52302843     0.91800
O667        O  0.29548235  0.70670642  0.41697567    -0.71900
O668        O  0.29301647  0.79037300  0.49553898    -0.72900
O669        O  0.29288796  0.69769834  0.49293088    -0.61500
O670        O  0.29583952  0.79005980  0.42077505    -0.70000
O671        O  0.46416966  0.79025090  0.41823555    -0.69500
O672        O  0.46170419  0.69772211  0.49050856    -0.60800
O673        O  0.46179901  0.79046310  0.49309328    -0.73300
O674        O  0.46390910  0.70686187  0.41452226    -0.72000
Cu675      Cu  0.29708826  0.74597198  0.45752104     1.04600
Cu676      Cu  0.46004497  0.74610598  0.45487596     1.04300
C677        C  0.25510873  0.69790938  0.40107637     0.94300
C678        C  0.25216504  0.80738013  0.50316233     0.93400
C679        C  0.25201817  0.68056277  0.50069053     0.85500
C680        C  0.25549157  0.80182727  0.40643325     0.91800
C681        C  0.25725106  0.88113290  0.32355519     0.87500
C682        C  0.46209603  0.88316466  0.29901735    -0.52700
C683        C  0.46121725  0.91657781  0.27671557     0.10400
C684        C  0.25643839  0.94518806  0.28165111     0.21400
C685        C  0.30121750  0.88295197  0.29909197    -0.53500
C686        C  0.30123559  0.91639735  0.27678209     0.10500
C687        C  0.25793290  0.92085114  0.34337495    -0.53000
C688        C  0.25743244  0.95442265  0.32212288     0.11100
H689        H  0.43437310  0.85924004  0.29804761     0.15600
H690        H  0.25604691  0.97255105  0.26381921     0.01300
H691        H  0.32868496  0.85891001  0.29817161     0.15900
H692        H  0.25840529  0.92243414  0.37236586     0.15700
C693        C  0.50049224  0.70304597  0.70468616     0.87500
C694        C  0.29577476  0.70781359  0.72912323    -0.52700
C695        C  0.29595420  0.74363738  0.74813979     0.10400
C696        C  0.25149086  0.77124786  0.73925432     0.21400
C697        C  0.45660506  0.70774631  0.72920601    -0.53500
C698        C  0.45751364  0.74358797  0.74820523     0.10500
C699        C  0.49981418  0.74053215  0.68088455    -0.53000
C700        C  0.50031762  0.77589882  0.69861392     0.11100
H701        H  0.32376443  0.68437298  0.73126886     0.15600
H702        H  0.25186822  0.80139277  0.75194418     0.01300
H703        H  0.42872613  0.68427648  0.73138954     0.15900
H704        H  0.49903365  0.73937085  0.65186932     0.15700
C705        C  0.25679001  0.99282013  0.33995428    -0.12300
C706        C  0.25606163  0.67958170  0.36661866    -0.13800
C707        C  0.25666845  0.82629770  0.37509274    -0.12300
C708        C  0.25739815  0.84747066  0.34893521    -0.13800
C709        C  0.49989555  0.66761828  0.68154789    -0.12300
C710        C  0.49966491  0.98189759  0.65435153    -0.13800
C711        C  0.49979537  0.83518915  0.65285330    -0.12300
C712        C  0.49994311  0.81292599  0.67836564    -0.13800
C713        C  0.37965376  0.85117654  0.86786716    -0.12300
C714        C  0.37923995  0.83143645  0.84111660    -0.13800
C715        C  0.37930331  0.68617201  0.84749737    -0.12300
C716        C  0.37975564  0.99784014  0.87345696    -0.13800
C717        C  0.37873103  0.85418914  0.17192880    -0.12300
C718        C  0.37881977  0.83364030  0.14583270    -0.13800
C719        C  0.37931861  0.99871112  0.18591500    -0.12300
C720        C  0.37938973  0.68638594  0.15933720    -0.13800
O721        O  0.67016952  0.13009082  0.10352556    -0.71900
O722        O  0.67075790  0.03645506  0.03421760    -0.72900
O723        O  0.67065724  0.12911629  0.02895366    -0.61500
O724        O  0.67038359  0.04676273  0.11014336    -0.70000
O725        O  0.58881299  0.04657243  0.10873275    -0.69500
O726        O  0.58940321  0.12897731  0.02753266    -0.60800
O727        O  0.58956474  0.03635445  0.03281880    -0.73300
O728        O  0.58845577  0.12988010  0.10205057    -0.72000
Cu729      Cu  0.67331991  0.08532559  0.06840282     1.04600
Cu730      Cu  0.58624977  0.08514569  0.06687039     1.04300
C731        C  0.62916758  0.14200342  0.11534974     0.94300
C732        C  0.63022661  0.01926269  0.02484511     0.93400
C733        C  0.63006902  0.14607198  0.01919455     0.85500
C734        C  0.62952978  0.03801080  0.12442342     0.91800
C735        C  0.62865687  0.12863915  0.81893782     0.87500
C736        C  0.67250502  0.12340256  0.79464486    -0.52700
C737        C  0.67169740  0.08720243  0.77616899     0.10400
C738        C  0.62769195  0.05965569  0.78548320     0.21400
C739        C  0.58352699  0.12340904  0.79462286    -0.53500
C740        C  0.58327055  0.08721927  0.77613780     0.10500
C741        C  0.62925806  0.09176337  0.84340343    -0.53000
C742        C  0.62878010  0.05593647  0.82633152     0.11100
H743        H  0.70014103  0.14697165  0.79219677     0.15600
H744        H  0.62731709  0.02929634  0.77301343     0.01300
H745        H  0.55582669  0.14699182  0.79215462     0.15900
H746        H  0.63002306  0.09368728  0.87237642     0.15700
O747        O  0.67074990  0.21345527  0.91636086    -0.71900
O748        O  0.67088254  0.29670121  0.99524270    -0.72900
O749        O  0.67074494  0.20396877  0.99159737    -0.61500
O750        O  0.67085102  0.29680368  0.91968348    -0.70000
O751        O  0.58918903  0.29680609  0.91875854    -0.69500
O752        O  0.58952558  0.20397921  0.99055676    -0.60800
O753        O  0.58965388  0.29661067  0.99425259    -0.73300
O754        O  0.58910276  0.21349618  0.91537861    -0.72000
Cu755      Cu  0.67364414  0.25265368  0.95664720     1.04600
Cu756      Cu  0.58656582  0.25264649  0.95559033     1.04300
C757        C  0.62985606  0.20407388  0.90155832     0.94300
C758        C  0.63028345  0.31324503  0.00414710     0.93400
C759        C  0.63012750  0.18643515  0.99939573     0.85500
C760        C  0.62995900  0.30794820  0.90571485     0.91800
C761        C  0.62920127  0.21935730  0.19834010     0.87500
C762        C  0.67444298  0.21953712  0.22279872    -0.52700
C763        C  0.67548464  0.25117155  0.24636407     0.10400
C764        C  0.63031508  0.28013914  0.24259910     0.21400
C765        C  0.58535178  0.21928202  0.22290716    -0.53500
C766        C  0.58548927  0.25093833  0.24647357     0.10500
C767        C  0.62855331  0.26044395  0.18002140    -0.53000
C768        C  0.62916846  0.29241609  0.20248342     0.11100
H769        H  0.70206287  0.19555111  0.22281225     0.15600
H770        H  0.63081950  0.30611157  0.26145311     0.01300
H771        H  0.55782222  0.19518379  0.22294255     0.15900
H772        H  0.62787142  0.26411804  0.15111973     0.15700
O773        O  0.71073988  0.29054744  0.52990089    -0.71900
O774        O  0.70946239  0.20191299  0.60582031    -0.72900
O775        O  0.70938469  0.28540234  0.60577510    -0.61500
O776        O  0.71087641  0.19765433  0.53067843    -0.70000
O777        O  0.54209468  0.19779250  0.53251938    -0.69500
O778        O  0.54101543  0.28547409  0.60748519    -0.60800
O779        O  0.54112836  0.20204965  0.60756681    -0.73300
O780        O  0.54195203  0.29054246  0.53171541    -0.72000
Cu781      Cu  0.70728741  0.24396092  0.56709047     1.04600
Cu782      Cu  0.54435618  0.24405495  0.56899761     1.04300
C783        C  0.75151201  0.30749087  0.52156672     0.94300
C784        C  0.75012576  0.19130115  0.62044637     0.93400
C785        C  0.75001472  0.29529069  0.62074071     0.85500
C786        C  0.75166848  0.18055772  0.52302842     0.91800
O787        O  0.54548253  0.04003973  0.41697562    -0.71900
O788        O  0.54301643  0.12370633  0.49553897    -0.72900
O789        O  0.54288791  0.03103165  0.49293088    -0.61500
O790        O  0.54583961  0.12339315  0.42077502    -0.70000
O791        O  0.71416975  0.12358419  0.41823546    -0.69500
O792        O  0.71170415  0.03105541  0.49050843    -0.60800
O793        O  0.71179909  0.12379642  0.49309316    -0.73300
O794        O  0.71390906  0.04019522  0.41452214    -0.72000
Cu795      Cu  0.54708838  0.07930533  0.45752104     1.04600
Cu796      Cu  0.71004498  0.07943931  0.45487584     1.04300
C797        C  0.50510892  0.03124263  0.40107632     0.94300
C798        C  0.50216485  0.14071345  0.50316228     0.93400
C799        C  0.50201808  0.01389609  0.50069048     0.85500
C800        C  0.50549167  0.13516059  0.40643321     0.91800
C801        C  0.50725120  0.21446612  0.32355518     0.87500
C802        C  0.71209608  0.21649806  0.29901730    -0.52700
C803        C  0.71121721  0.24991118  0.27671558     0.10400
C804        C  0.50643835  0.27852139  0.28165112     0.21400
C805        C  0.55121729  0.21628556  0.29909199    -0.53500
C806        C  0.55123568  0.24973053  0.27678209     0.10500
C807        C  0.50793290  0.25418444  0.34337496    -0.53000
C808        C  0.50743243  0.28775592  0.32212290     0.11100
H809        H  0.68437265  0.19257309  0.29804752     0.15600
H810        H  0.50604679  0.30588415  0.26381941     0.01300
H811        H  0.57868793  0.19224097  0.29817165     0.15900
H812        H  0.50840513  0.25576742  0.37236583     0.15700
C813        C  0.75049238  0.03637923  0.70468617     0.87500
C814        C  0.54577473  0.04114689  0.72912319    -0.52700
C815        C  0.54595413  0.07697069  0.74813981     0.10400
C816        C  0.50149084  0.10458123  0.73925440     0.21400
C817        C  0.70660515  0.04107965  0.72920601    -0.53500
C818        C  0.70751371  0.07692122  0.74820527     0.10500
C819        C  0.74981419  0.07386552  0.68088459    -0.53000
C820        C  0.75031764  0.10923215  0.69861397     0.11100
H821        H  0.57376396  0.01770662  0.73126880     0.15600
H822        H  0.50186814  0.13472563  0.75194397     0.01300
H823        H  0.67872584  0.01760950  0.73138959     0.15900
H824        H  0.74903366  0.07270420  0.65186912     0.15700
C825        C  0.50678992  0.32615343  0.33995430    -0.12300
C826        C  0.50606175  0.01291506  0.36661859    -0.13800
C827        C  0.50666853  0.15963102  0.37509273    -0.12300
C828        C  0.50739817  0.18080396  0.34893519    -0.13800
C829        C  0.74989557  0.00095159  0.68154786    -0.12300
C830        C  0.74966482  0.31523087  0.65435161    -0.13800
C831        C  0.74979535  0.16852246  0.65285331    -0.12300
C832        C  0.74994315  0.14625934  0.67836568    -0.13800
C833        C  0.62965363  0.18450984  0.86786718    -0.12300
C834        C  0.62923992  0.16476974  0.84111661    -0.13800
C835        C  0.62930322  0.01950530  0.84749737    -0.12300
C836        C  0.62975593  0.33117347  0.87345693    -0.13800
C837        C  0.62873119  0.18752242  0.17192881    -0.12300
C838        C  0.62881986  0.16697366  0.14583267    -0.13800
C839        C  0.62931852  0.33204447  0.18591499    -0.12300
C840        C  0.62938966  0.01971928  0.15933720    -0.13800
O841        O  0.67016958  0.46342417  0.10352554    -0.71900
O842        O  0.67075793  0.36978841  0.03421763    -0.72900
O843        O  0.67065718  0.46244964  0.02895362    -0.61500
O844        O  0.67038376  0.38009610  0.11014341    -0.70000
O845        O  0.58881316  0.37990578  0.10873273    -0.69500
O846        O  0.58940312  0.46231060  0.02753271    -0.60800
O847        O  0.58956478  0.36968786  0.03281879    -0.73300
O848        O  0.58845582  0.46321345  0.10205057    -0.72000
Cu849      Cu  0.67332000  0.41865896  0.06840282     1.04600
Cu850      Cu  0.58624980  0.41847904  0.06687040     1.04300
C851        C  0.62916765  0.47533677  0.11534973     0.94300
C852        C  0.63022665  0.35259608  0.02484511     0.93400
C853        C  0.63006892  0.47940527  0.01919454     0.85500
C854        C  0.62952995  0.37134415  0.12442343     0.91800
C855        C  0.62865655  0.46197251  0.81893780     0.87500
C856        C  0.67250519  0.45673619  0.79464483    -0.52700
C857        C  0.67169725  0.42053571  0.77616901     0.10400
C858        C  0.62769189  0.39298900  0.78548316     0.21400
C859        C  0.58352716  0.45674208  0.79462290    -0.53500
C860        C  0.58327036  0.42055269  0.77613780     0.10500
C861        C  0.62925795  0.42509670  0.84340342    -0.53000
C862        C  0.62878003  0.38926981  0.82633150     0.11100
H863        H  0.70013828  0.48030303  0.79219705     0.15600
H864        H  0.62731713  0.36263018  0.77301364     0.01300
H865        H  0.55582350  0.48032737  0.79215432     0.15900
H866        H  0.63002269  0.42702061  0.87237635     0.15700
O867        O  0.67074985  0.54678864  0.91636085    -0.71900
O868        O  0.67088259  0.63003450  0.99524272    -0.72900
O869        O  0.67074482  0.53730202  0.99159740    -0.61500
O870        O  0.67085097  0.63013705  0.91968353    -0.70000
O871        O  0.58918898  0.63013929  0.91875850    -0.69500
O872        O  0.58952545  0.53731243  0.99055675    -0.60800
O873        O  0.58965391  0.62994389  0.99425259    -0.73300
O874        O  0.58910270  0.54682937  0.91537862    -0.72000
Cu875      Cu  0.67364406  0.58598700  0.95664724     1.04600
Cu876      Cu  0.58656578  0.58597969  0.95559029     1.04300
C877        C  0.62985602  0.53740719  0.90155831     0.94300
C878        C  0.63028351  0.64657829  0.00414711     0.93400
C879        C  0.63012736  0.51976840  0.99939573     0.85500
C880        C  0.62995894  0.64128151  0.90571486     0.91800
C881        C  0.62920131  0.55269065  0.19834009     0.87500
C882        C  0.67444297  0.55287045  0.22279877    -0.52700
C883        C  0.67548463  0.58450485  0.24636413     0.10400
C884        C  0.63031509  0.61347247  0.24259910     0.21400
C885        C  0.58535177  0.55261538  0.22290710    -0.53500
C886        C  0.58548924  0.58427168  0.24647353     0.10500
C887        C  0.62855339  0.59377730  0.18002139    -0.53000
C888        C  0.62916858  0.62574943  0.20248343     0.11100
H889        H  0.70206300  0.52888426  0.22281238     0.15600
H890        H  0.63081923  0.63944491  0.26145311     0.01300
H891        H  0.55782235  0.52851733  0.22294240     0.15900
H892        H  0.62787165  0.59745140  0.15111972     0.15700
O893        O  0.71073987  0.62388083  0.52990088    -0.71900
O894        O  0.70946240  0.53524632  0.60582034    -0.72900
O895        O  0.70938475  0.61873572  0.60577510    -0.61500
O896        O  0.71087627  0.53098769  0.53067842    -0.70000
O897        O  0.54209468  0.53112575  0.53251941    -0.69500
O898        O  0.54101547  0.61880728  0.60748518    -0.60800
O899        O  0.54112822  0.53538287  0.60756677    -0.73300
O900        O  0.54195199  0.62387565  0.53171541    -0.72000
Cu901      Cu  0.70728736  0.57729428  0.56709046     1.04600
Cu902      Cu  0.54435617  0.57738816  0.56899762     1.04300
C903        C  0.75151195  0.64082417  0.52156672     0.94300
C904        C  0.75012578  0.52463444  0.62044638     0.93400
C905        C  0.75001483  0.62862398  0.62074069     0.85500
C906        C  0.75166844  0.51389102  0.52302841     0.91800
O907        O  0.54548239  0.37337306  0.41697567    -0.71900
O908        O  0.54301643  0.45703966  0.49553896    -0.72900
O909        O  0.54288796  0.36436504  0.49293087    -0.61500
O910        O  0.54583966  0.45672647  0.42077504    -0.70000
O911        O  0.71416971  0.45691753  0.41823544    -0.69500
O912        O  0.71170412  0.36438873  0.49050844    -0.60800
O913        O  0.71179890  0.45712975  0.49309313    -0.73300
O914        O  0.71390914  0.37352852  0.41452213    -0.72000
Cu915      Cu  0.54708836  0.41263865  0.45752105     1.04600
Cu916      Cu  0.71004489  0.41277261  0.45487581     1.04300
C917        C  0.50510882  0.36457601  0.40107632     0.94300
C918        C  0.50216486  0.47404678  0.50316227     0.93400
C919        C  0.50201811  0.34722944  0.50069047     0.85500
C920        C  0.50549173  0.46849393  0.40643321     0.91800
C921        C  0.50725114  0.54779955  0.32355521     0.87500
C922        C  0.71209615  0.54983142  0.29901731    -0.52700
C923        C  0.71121723  0.58324451  0.27671558     0.10400
C924        C  0.50643842  0.61185478  0.28165111     0.21400
C925        C  0.55121746  0.54961864  0.29909195    -0.53500
C926        C  0.55123556  0.58306397  0.27678206     0.10500
C927        C  0.50793295  0.58751782  0.34337498    -0.53000
C928        C  0.50743242  0.62108931  0.32212290     0.11100
H929        H  0.68437240  0.52590613  0.29804754     0.15600
H930        H  0.50604686  0.63921754  0.26381937     0.01300
H931        H  0.57868526  0.52557629  0.29817162     0.15900
H932        H  0.50840563  0.58910079  0.37236583     0.15700
C933        C  0.75049248  0.36971263  0.70468616     0.87500
C934        C  0.54577501  0.37448004  0.72912316    -0.52700
C935        C  0.54595408  0.41030414  0.74813974     0.10400
C936        C  0.50149079  0.43791459  0.73925436     0.21400
C937        C  0.70660492  0.37441274  0.72920608    -0.53500
C938        C  0.70751380  0.41025469  0.74820527     0.10500
C939        C  0.74981418  0.40719883  0.68088459    -0.53000
C940        C  0.75031769  0.44256549  0.69861394     0.11100
H941        H  0.57376146  0.35104180  0.73126860     0.15600
H942        H  0.50186820  0.46805917  0.75194403     0.01300
H943        H  0.67872856  0.35094477  0.73138944     0.15900
H944        H  0.74903326  0.40603749  0.65186915     0.15700
C945        C  0.50678996  0.65948679  0.33995432    -0.12300
C946        C  0.50606174  0.34624833  0.36661863    -0.13800
C947        C  0.50666856  0.49296438  0.37509272    -0.12300
C948        C  0.50739825  0.51413732  0.34893519    -0.13800
C949        C  0.74989560  0.33428497  0.68154789    -0.12300
C950        C  0.74966507  0.64856421  0.65435159    -0.13800
C951        C  0.74979541  0.50185580  0.65285333    -0.12300
C952        C  0.74994311  0.47959266  0.67836568    -0.13800
C953        C  0.62965357  0.51784319  0.86786715    -0.12300
C954        C  0.62923991  0.49810308  0.84111659    -0.13800
C955        C  0.62930331  0.35283865  0.84749735    -0.12300
C956        C  0.62975579  0.66450682  0.87345695    -0.13800
C957        C  0.62873111  0.52085576  0.17192880    -0.12300
C958        C  0.62881994  0.50030701  0.14583267    -0.13800
C959        C  0.62931858  0.66537782  0.18591502    -0.12300
C960        C  0.62938976  0.35305262  0.15933718    -0.13800
O961        O  0.67016947  0.79675753  0.10352553    -0.71900
O962        O  0.67075805  0.70312172  0.03421760    -0.72900
O963        O  0.67065741  0.79578292  0.02895366    -0.61500
O964        O  0.67038365  0.71342945  0.11014342    -0.70000
O965        O  0.58881305  0.71323909  0.10873272    -0.69500
O966        O  0.58940335  0.79564398  0.02753266    -0.60800
O967        O  0.58956489  0.70302115  0.03281876    -0.73300
O968        O  0.58845572  0.79654674  0.10205053    -0.72000
Cu969      Cu  0.67331998  0.75199228  0.06840285     1.04600
Cu970      Cu  0.58624988  0.75181237  0.06687034     1.04300
C971        C  0.62916751  0.80867010  0.11534974     0.94300
C972        C  0.63022674  0.68592936  0.02484510     0.93400
C973        C  0.63006919  0.81273859  0.01919452     0.85500
C974        C  0.62952984  0.70467744  0.12442341     0.91800
C975        C  0.62865670  0.79530593  0.81893778     0.87500
C976        C  0.67250489  0.79006931  0.79464486    -0.52700
C977        C  0.67169733  0.75386920  0.77616899     0.10400
C978        C  0.62769192  0.72632241  0.78548320     0.21400
C979        C  0.58352726  0.79007545  0.79462289    -0.53500
C980        C  0.58327043  0.75388605  0.77613781     0.10500
C981        C  0.62925804  0.75843008  0.84340341    -0.53000
C982        C  0.62878011  0.72260320  0.82633151     0.11100
H983        H  0.70014156  0.81363877  0.79219665     0.15600
H984        H  0.62731707  0.69596325  0.77301352     0.01300
H985        H  0.55582359  0.81366054  0.79215442     0.15900
H986        H  0.63002309  0.76035400  0.87237635     0.15700
O987        O  0.67074999  0.88012198  0.91636081    -0.71900
O988        O  0.67088259  0.96336788  0.99524276    -0.72900
O989        O  0.67074508  0.87063535  0.99159739    -0.61500
O990        O  0.67085095  0.96347041  0.91968352    -0.70000
O991        O  0.58918897  0.96347261  0.91875854    -0.69500
O992        O  0.58952571  0.87064572  0.99055678    -0.60800
O993        O  0.58965390  0.96327721  0.99425260    -0.73300
O994        O  0.58910284  0.88016273  0.91537865    -0.72000
Cu995      Cu  0.67364410  0.91932035  0.95664724     1.04600
Cu996      Cu  0.58656588  0.91931301  0.95559033     1.04300
C997        C  0.62985613  0.87074054  0.90155831     0.94300
C998        C  0.63028346  0.97991165  0.00414712     0.93400
C999        C  0.63012766  0.85310170  0.99939573     0.85500
C1000       C  0.62995889  0.97461485  0.90571487     0.91800
C1001       C  0.62920134  0.88602407  0.19834002     0.87500
C1002       C  0.67444288  0.88620381  0.22279873    -0.52700
C1003       C  0.67548465  0.91783812  0.24636412     0.10400
C1004       C  0.63031510  0.94680583  0.24259912     0.21400
C1005       C  0.58535151  0.88594842  0.22290711    -0.53500
C1006       C  0.58548933  0.91760507  0.24647355     0.10500
C1007       C  0.62855338  0.92711065  0.18002143    -0.53000
C1008       C  0.62916859  0.95908278  0.20248340     0.11100
H1009       H  0.70206309  0.86221699  0.22281258     0.15600
H1010       H  0.63081932  0.97277809  0.26145301     0.01300
H1011       H  0.55782489  0.86185261  0.22294249     0.15900
H1012       H  0.62787154  0.93078478  0.15111930     0.15700
O1013       O  0.71073980  0.95721413  0.52990090    -0.71900
O1014       O  0.70946241  0.86857968  0.60582034    -0.72900
O1015       O  0.70938466  0.95206905  0.60577509    -0.61500
O1016       O  0.71087644  0.86432106  0.53067846    -0.70000
O1017       O  0.54209471  0.86445912  0.53251945    -0.69500
O1018       O  0.54101541  0.95214062  0.60748520    -0.60800
O1019       O  0.54112828  0.86871619  0.60756680    -0.73300
O1020       O  0.54195189  0.95720902  0.53171539    -0.72000
Cu1021     Cu  0.70728737  0.91062762  0.56709046     1.04600
Cu1022     Cu  0.54435617  0.91072150  0.56899764     1.04300
C1023       C  0.75151199  0.97415750  0.52156673     0.94300
C1024       C  0.75012578  0.85796780  0.62044639     0.93400
C1025       C  0.75001473  0.96195734  0.62074067     0.85500
C1026       C  0.75166867  0.84722440  0.52302842     0.91800
O1027       O  0.54548241  0.70670642  0.41697566    -0.71900
O1028       O  0.54301643  0.79037300  0.49553898    -0.72900
O1029       O  0.54288801  0.69769834  0.49293088    -0.61500
O1030       O  0.54583957  0.79005980  0.42077506    -0.70000
O1031       O  0.71416969  0.79025089  0.41823544    -0.69500
O1032       O  0.71170424  0.69772209  0.49050844    -0.60800
O1033       O  0.71179905  0.79046314  0.49309317    -0.73300
O1034       O  0.71390919  0.70686188  0.41452216    -0.72000
Cu1035     Cu  0.54708831  0.74597198  0.45752104     1.04600
Cu1036     Cu  0.71004500  0.74610597  0.45487583     1.04300
C1037       C  0.50510879  0.69790938  0.40107637     0.94300
C1038       C  0.50216495  0.80738013  0.50316233     0.93400
C1039       C  0.50201821  0.68056277  0.50069053     0.85500
C1040       C  0.50549162  0.80182727  0.40643326     0.91800
C1041       C  0.50725110  0.88113291  0.32355519     0.87500
C1042       C  0.71209587  0.88316452  0.29901730    -0.52700
C1043       C  0.71121739  0.91657800  0.27671554     0.10400
C1044       C  0.50643839  0.94518806  0.28165110     0.21400
C1045       C  0.55121753  0.88295197  0.29909195    -0.53500
C1046       C  0.55123561  0.91639734  0.27678207     0.10500
C1047       C  0.50793291  0.92085114  0.34337496    -0.53000
C1048       C  0.50743240  0.95442265  0.32212289     0.11100
H1049       H  0.68437535  0.85924212  0.29804772     0.15600
H1050       H  0.50604685  0.97255106  0.26381923     0.01300
H1051       H  0.57868495  0.85891004  0.29817159     0.15900
H1052       H  0.50840526  0.92243414  0.37236589     0.15700
C1053       C  0.75049220  0.70304605  0.70468620     0.87500
C1054       C  0.54577502  0.70781331  0.72912325    -0.52700
C1055       C  0.54595407  0.74363747  0.74813980     0.10400
C1056       C  0.50149079  0.77124789  0.73925432     0.21400
C1057       C  0.70660509  0.70774632  0.72920610    -0.53500
C1058       C  0.70751367  0.74358806  0.74820533     0.10500
C1059       C  0.74981406  0.74053218  0.68088460    -0.53000
C1060       C  0.75031761  0.77589891  0.69861398     0.11100
H1061       H  0.57376155  0.68437494  0.73126876     0.15600
H1062       H  0.50186814  0.80139277  0.75194413     0.01300
H1063       H  0.67872625  0.68427651  0.73138964     0.15900
H1064       H  0.74903308  0.73937089  0.65186937     0.15700
C1065       C  0.50678998  0.99282013  0.33995428    -0.12300
C1066       C  0.50606168  0.67958170  0.36661865    -0.13800
C1067       C  0.50666850  0.82629769  0.37509275    -0.12300
C1068       C  0.50739821  0.84747066  0.34893521    -0.13800
C1069       C  0.74989554  0.66761829  0.68154789    -0.12300
C1070       C  0.74966497  0.98189759  0.65435153    -0.13800
C1071       C  0.74979543  0.83518915  0.65285329    -0.12300
C1072       C  0.74994305  0.81292600  0.67836563    -0.13800
C1073       C  0.62965357  0.85117654  0.86786715    -0.12300
C1074       C  0.62923990  0.83143645  0.84111660    -0.13800
C1075       C  0.62930336  0.68617200  0.84749736    -0.12300
C1076       C  0.62975566  0.99784014  0.87345696    -0.13800
C1077       C  0.62873107  0.85418914  0.17192880    -0.12300
C1078       C  0.62881982  0.83364030  0.14583270    -0.13800
C1079       C  0.62931857  0.99871112  0.18591500    -0.12300
C1080       C  0.62938978  0.68638595  0.15933719    -0.13800
O1081       O  0.92016939  0.13009082  0.10352557    -0.71900
O1082       O  0.92075797  0.03645505  0.03421761    -0.72900
O1083       O  0.92065729  0.12911628  0.02895367    -0.61500
O1084       O  0.92038356  0.04676273  0.11014338    -0.70000
O1085       O  0.83881296  0.04657243  0.10873273    -0.69500
O1086       O  0.83940326  0.12897731  0.02753265    -0.60800
O1087       O  0.83956481  0.03635446  0.03281879    -0.73300
O1088       O  0.83845563  0.12988009  0.10205054    -0.72000
Cu1089     Cu  0.92331990  0.08532559  0.06840285     1.04600
Cu1090     Cu  0.83624981  0.08514569  0.06687035     1.04300
C1091       C  0.87916743  0.14200342  0.11534974     0.94300
C1092       C  0.88022667  0.01926269  0.02484511     0.93400
C1093       C  0.88006908  0.14607198  0.01919455     0.85500
C1094       C  0.87952974  0.03801080  0.12442342     0.91800
C1095       C  0.87865688  0.12863916  0.81893782     0.87500
C1096       C  0.92250504  0.12340257  0.79464487    -0.52700
C1097       C  0.92169741  0.08720244  0.77616899     0.10400
C1098       C  0.87769198  0.05965568  0.78548321     0.21400
C1099       C  0.83352702  0.12340904  0.79462288    -0.53500
C1100       C  0.83327057  0.08721928  0.77613782     0.10500
C1101       C  0.87925810  0.09176337  0.84340343    -0.53000
C1102       C  0.87878012  0.05593647  0.82633153     0.11100
H1103       H  0.95014108  0.14697160  0.79219677     0.15600
H1104       H  0.87731705  0.02929634  0.77301344     0.01300
H1105       H  0.80582660  0.14699187  0.79215461     0.15900
H1106       H  0.88002312  0.09368728  0.87237640     0.15700
O1107       O  0.92074997  0.21345527  0.91636086    -0.71900
O1108       O  0.92088251  0.29670118  0.99524268    -0.72900
O1109       O  0.92074499  0.20396877  0.99159737    -0.61500
O1110       O  0.92085094  0.29680371  0.91968346    -0.70000
O1111       O  0.83918896  0.29680608  0.91875855    -0.69500
O1112       O  0.83952564  0.20397921  0.99055676    -0.60800
O1113       O  0.83965384  0.29661069  0.99425260    -0.73300
O1114       O  0.83910283  0.21349618  0.91537861    -0.72000
Cu1115     Cu  0.92364414  0.25265368  0.95664719     1.04600
Cu1116     Cu  0.83656582  0.25264648  0.95559032     1.04300
C1117       C  0.87985613  0.20407388  0.90155832     0.94300
C1118       C  0.88028325  0.31324503  0.00414709     0.93400
C1119       C  0.88012756  0.18643515  0.99939574     0.85500
C1120       C  0.87995889  0.30794821  0.90571484     0.91800
C1121       C  0.87920105  0.21935739  0.19834009     0.87500
C1122       C  0.92444317  0.21953686  0.22279872    -0.52700
C1123       C  0.92548451  0.25117160  0.24636412     0.10400
C1124       C  0.88031502  0.28013917  0.24259913     0.21400
C1125       C  0.83535164  0.21928205  0.22290715    -0.53500
C1126       C  0.83548917  0.25093838  0.24647357     0.10500
C1127       C  0.87855325  0.26044397  0.18002139    -0.53000
C1128       C  0.87916842  0.29241613  0.20248341     0.11100
H1129       H  0.95206022  0.19555300  0.22281240     0.15600
H1130       H  0.88081940  0.30611160  0.26145309     0.01300
H1131       H  0.80782237  0.19518409  0.22294255     0.15900
H1132       H  0.87787140  0.26411807  0.15111967     0.15700
O1133       O  0.96073984  0.29054749  0.52990087    -0.71900
O1134       O  0.95946224  0.20191298  0.60582032    -0.72900
O1135       O  0.95938459  0.28540236  0.60577510    -0.61500
O1136       O  0.96087629  0.19765433  0.53067843    -0.70000
O1137       O  0.79209473  0.19779253  0.53251939    -0.69500
O1138       O  0.79101547  0.28547409  0.60748519    -0.60800
O1139       O  0.79112830  0.20204965  0.60756679    -0.73300
O1140       O  0.79195204  0.29054248  0.53171539    -0.72000
Cu1141     Cu  0.95728728  0.24396092  0.56709044     1.04600
Cu1142     Cu  0.79435617  0.24405495  0.56899760     1.04300
C1143       C  0.00151195  0.30749088  0.52156672     0.94300
C1144       C  0.00012562  0.19130115  0.62044637     0.93400
C1145       C  0.00001464  0.29529068  0.62074070     0.85500
C1146       C  0.00166850  0.18055772  0.52302842     0.91800
O1147       O  0.79548239  0.04003973  0.41697561    -0.71900
O1148       O  0.79301653  0.12370632  0.49553898    -0.72900
O1149       O  0.79288795  0.03103167  0.49293087    -0.61500
O1150       O  0.79583966  0.12339314  0.42077503    -0.70000
O1151       O  0.96416965  0.12358417  0.41823545    -0.69500
O1152       O  0.96170418  0.03105540  0.49050843    -0.60800
O1153       O  0.96179902  0.12379642  0.49309315    -0.73300
O1154       O  0.96390909  0.04019518  0.41452214    -0.72000
Cu1155     Cu  0.79708836  0.07930531  0.45752102     1.04600
Cu1156     Cu  0.96004491  0.07943927  0.45487582     1.04300
C1157       C  0.75510877  0.03124263  0.40107633     0.94300
C1158       C  0.75216508  0.14071345  0.50316229     0.93400
C1159       C  0.75201800  0.01389609  0.50069048     0.85500
C1160       C  0.75549172  0.13516059  0.40643320     0.91800
C1161       C  0.75725105  0.21446620  0.32355520     0.87500
C1162       C  0.96209608  0.21649800  0.29901730    -0.52700
C1163       C  0.96121724  0.24991111  0.27671555     0.10400
C1164       C  0.75643831  0.27852144  0.28165112     0.21400
C1165       C  0.80121753  0.21628529  0.29909200    -0.53500
C1166       C  0.80123554  0.24973065  0.27678209     0.10500
C1167       C  0.75793287  0.25418446  0.34337497    -0.53000
C1168       C  0.75743243  0.28775596  0.32212291     0.11100
H1169       H  0.93437282  0.19257309  0.29804748     0.15600
H1170       H  0.75604676  0.30588417  0.26381943     0.01300
H1171       H  0.82868508  0.19224316  0.29817162     0.15900
H1172       H  0.75840519  0.25576745  0.37236588     0.15700
C1173       C  0.00049235  0.03637923  0.70468616     0.87500
C1174       C  0.79577472  0.04114693  0.72912321    -0.52700
C1175       C  0.79595419  0.07697070  0.74813980     0.10400
C1176       C  0.75149087  0.10458123  0.73925441     0.21400
C1177       C  0.95660515  0.04107963  0.72920602    -0.53500
C1178       C  0.95751370  0.07692122  0.74820526     0.10500
C1179       C  0.99981418  0.07386551  0.68088459    -0.53000
C1180       C  0.00031765  0.10923215  0.69861395     0.11100
H1181       H  0.82376441  0.01770633  0.73126884     0.15600
H1182       H  0.75186815  0.13472558  0.75194398     0.01300
H1183       H  0.92872594  0.01760958  0.73138959     0.15900
H1184       H  0.99903368  0.07270421  0.65186909     0.15700
C1185       C  0.75678998  0.32615345  0.33995430    -0.12300
C1186       C  0.75606166  0.01291507  0.36661861    -0.13800
C1187       C  0.75666858  0.15963102  0.37509272    -0.12300
C1188       C  0.75739815  0.18080398  0.34893519    -0.13800
C1189       C  0.99989555  0.00095159  0.68154786    -0.12300
C1190       C  0.99966489  0.31523086  0.65435160    -0.13800
C1191       C  0.99979529  0.16852246  0.65285331    -0.12300
C1192       C  0.99994301  0.14625935  0.67836567    -0.13800
C1193       C  0.87965369  0.18450984  0.86786718    -0.12300
C1194       C  0.87923996  0.16476974  0.84111661    -0.13800
C1195       C  0.87930327  0.01950530  0.84749737    -0.12300
C1196       C  0.87975575  0.33117347  0.87345694    -0.13800
C1197       C  0.87873102  0.18752243  0.17192881    -0.12300
C1198       C  0.87881975  0.16697366  0.14583268    -0.13800
C1199       C  0.87931857  0.33204448  0.18591498    -0.12300
C1200       C  0.87938968  0.01971929  0.15933719    -0.13800
O1201       O  0.92016952  0.46342418  0.10352555    -0.71900
O1202       O  0.92075797  0.36978838  0.03421761    -0.72900
O1203       O  0.92065722  0.46244961  0.02895364    -0.61500
O1204       O  0.92038380  0.38009609  0.11014341    -0.70000
O1205       O  0.83881319  0.37990580  0.10873275    -0.69500
O1206       O  0.83940315  0.46231059  0.02753267    -0.60800
O1207       O  0.83956482  0.36968786  0.03281883    -0.73300
O1208       O  0.83845577  0.46321348  0.10205055    -0.72000
Cu1209     Cu  0.92332004  0.41865895  0.06840283     1.04600
Cu1210     Cu  0.83624979  0.41847905  0.06687039     1.04300
C1211       C  0.87916758  0.47533676  0.11534975     0.94300
C1212       C  0.88022685  0.35259607  0.02484512     0.93400
C1213       C  0.88006896  0.47940523  0.01919451     0.85500
C1214       C  0.87952999  0.37134416  0.12442343     0.91800
C1215       C  0.87865685  0.46197251  0.81893780     0.87500
C1216       C  0.92250504  0.45673596  0.79464485    -0.52700
C1217       C  0.92169739  0.42053580  0.77616899     0.10400
C1218       C  0.87769195  0.39298904  0.78548320     0.21400
C1219       C  0.83352701  0.45674231  0.79462287    -0.53500
C1220       C  0.83327053  0.42055259  0.77613783     0.10500
C1221       C  0.87925806  0.42509672  0.84340343    -0.53000
C1222       C  0.87878002  0.38926983  0.82633151     0.11100
H1223       H  0.95014098  0.48030503  0.79219674     0.15600
H1224       H  0.87731715  0.36262975  0.77301347     0.01300
H1225       H  0.80582626  0.48032543  0.79215461     0.15900
H1226       H  0.88002296  0.42702062  0.87237638     0.15700
O1227       O  0.92074982  0.54678864  0.91636083    -0.71900
O1228       O  0.92088264  0.63003450  0.99524271    -0.72900
O1229       O  0.92074485  0.53730199  0.99159741    -0.61500
O1230       O  0.92085095  0.63013704  0.91968353    -0.70000
O1231       O  0.83918896  0.63013928  0.91875853    -0.69500
O1232       O  0.83952548  0.53731240  0.99055678    -0.60800
O1233       O  0.83965396  0.62994389  0.99425260    -0.73300
O1234       O  0.83910268  0.54682937  0.91537863    -0.72000
Cu1235     Cu  0.92364409  0.58598699  0.95664722     1.04600
Cu1236     Cu  0.83656581  0.58597968  0.95559033     1.04300
C1237       C  0.87985599  0.53740719  0.90155831     0.94300
C1238       C  0.88028356  0.64657829  0.00414711     0.93400
C1239       C  0.88012740  0.51976836  0.99939573     0.85500
C1240       C  0.87995891  0.64128150  0.90571488     0.91800
C1241       C  0.87920144  0.55269053  0.19834010     0.87500
C1242       C  0.92444268  0.55287063  0.22279881    -0.52700
C1243       C  0.92548477  0.58450466  0.24636410     0.10400
C1244       C  0.88031517  0.61347242  0.24259908     0.21400
C1245       C  0.83535182  0.55261534  0.22290715    -0.53500
C1246       C  0.83548929  0.58427166  0.24647352     0.10500
C1247       C  0.87855353  0.59377723  0.18002145    -0.53000
C1248       C  0.87916869  0.62574934  0.20248342     0.11100
H1249       H  0.95206578  0.52888155  0.22281261     0.15600
H1250       H  0.88081940  0.63944479  0.26145302     0.01300
H1251       H  0.80782223  0.52851726  0.22294246     0.15900
H1252       H  0.87787203  0.59745131  0.15111950     0.15700
O1253       O  0.96073988  0.62388083  0.52990088    -0.71900
O1254       O  0.95946251  0.53524633  0.60582031    -0.72900
O1255       O  0.95938478  0.61873570  0.60577510    -0.61500
O1256       O  0.96087637  0.53098773  0.53067845    -0.70000
O1257       O  0.79209459  0.53112574  0.53251940    -0.69500
O1258       O  0.79101554  0.61880727  0.60748519    -0.60800
O1259       O  0.79112831  0.53538287  0.60756677    -0.73300
O1260       O  0.79195202  0.62387566  0.53171541    -0.72000
Cu1261     Cu  0.95728742  0.57729429  0.56709046     1.04600
Cu1262     Cu  0.79435616  0.57738815  0.56899761     1.04300
C1263       C  0.00151206  0.64082423  0.52156672     0.94300
C1264       C  0.00012587  0.52463449  0.62044638     0.93400
C1265       C  0.00001482  0.62862403  0.62074070     0.85500
C1266       C  0.00166859  0.51389107  0.52302842     0.91800
O1267       O  0.79548246  0.37337307  0.41697567    -0.71900
O1268       O  0.79301634  0.45703967  0.49553897    -0.72900
O1269       O  0.79288793  0.36436505  0.49293086    -0.61500
O1270       O  0.79583961  0.45672648  0.42077503    -0.70000
O1271       O  0.96416970  0.45691755  0.41823543    -0.69500
O1272       O  0.96170415  0.36438874  0.49050844    -0.60800
O1273       O  0.96179894  0.45712982  0.49309316    -0.73300
O1274       O  0.96390920  0.37352853  0.41452215    -0.72000
Cu1275     Cu  0.79708832  0.41263867  0.45752105     1.04600
Cu1276     Cu  0.96004493  0.41277263  0.45487583     1.04300
C1277       C  0.75510888  0.36457602  0.40107633     0.94300
C1278       C  0.75216474  0.47404678  0.50316227     0.93400
C1279       C  0.75201804  0.34722945  0.50069047     0.85500
C1280       C  0.75549167  0.46849394  0.40643320     0.91800
C1281       C  0.75725113  0.54779956  0.32355520     0.87500
C1282       C  0.96209612  0.54983139  0.29901736    -0.52700
C1283       C  0.96121725  0.58324452  0.27671561     0.10400
C1284       C  0.75643833  0.61185480  0.28165110     0.21400
C1285       C  0.80121748  0.54961869  0.29909197    -0.53500
C1286       C  0.80123556  0.58306403  0.27678207     0.10500
C1287       C  0.75793287  0.58751781  0.34337497    -0.53000
C1288       C  0.75743235  0.62108930  0.32212290     0.11100
H1289       H  0.93437269  0.52590637  0.29804764     0.15600
H1290       H  0.75604680  0.63921756  0.26381939     0.01300
H1291       H  0.82868522  0.52557645  0.29817171     0.15900
H1292       H  0.75840515  0.58910078  0.37236585     0.15700
C1293       C  0.00049220  0.36971263  0.70468615     0.87500
C1294       C  0.79577485  0.37448026  0.72912316    -0.52700
C1295       C  0.79595423  0.41030403  0.74813978     0.10400
C1296       C  0.75149086  0.43791463  0.73925441     0.21400
C1297       C  0.95660504  0.37441298  0.72920600    -0.53500
C1298       C  0.95751364  0.41025462  0.74820524     0.10500
C1299       C  0.99981409  0.40719880  0.68088456    -0.53000
C1300       C  0.00031755  0.44256547  0.69861393     0.11100
H1301       H  0.82376417  0.35103990  0.73126884     0.15600
H1302       H  0.75186824  0.46805858  0.75194376     0.01300
H1303       H  0.92872595  0.35094306  0.73138953     0.15900
H1304       H  0.99903319  0.40603750  0.65186933     0.15700
C1305       C  0.75678992  0.65948678  0.33995430    -0.12300
C1306       C  0.75606179  0.34624834  0.36661864    -0.13800
C1307       C  0.75666851  0.49296437  0.37509272    -0.12300
C1308       C  0.75739825  0.51413732  0.34893519    -0.13800
C1309       C  0.99989547  0.33428493  0.68154790    -0.12300
C1310       C  0.99966493  0.64856420  0.65435159    -0.13800
C1311       C  0.99979546  0.50185580  0.65285328    -0.12300
C1312       C  0.99994315  0.47959264  0.67836564    -0.13800
C1313       C  0.87965359  0.51784319  0.86786715    -0.12300
C1314       C  0.87923986  0.49810308  0.84111659    -0.13800
C1315       C  0.87930327  0.35283865  0.84749735    -0.12300
C1316       C  0.87975581  0.66450680  0.87345697    -0.13800
C1317       C  0.87873110  0.52085575  0.17192879    -0.12300
C1318       C  0.87881986  0.50030688  0.14583273    -0.13800
C1319       C  0.87931860  0.66537775  0.18591501    -0.12300
C1320       C  0.87938982  0.35305263  0.15933717    -0.13800
O1321       O  0.92016956  0.79675753  0.10352554    -0.71900
O1322       O  0.92075809  0.70312172  0.03421761    -0.72900
O1323       O  0.92065737  0.79578293  0.02895366    -0.61500
O1324       O  0.92038375  0.71342945  0.11014342    -0.70000
O1325       O  0.83881316  0.71323909  0.10873271    -0.69500
O1326       O  0.83940332  0.79564399  0.02753266    -0.60800
O1327       O  0.83956493  0.70302115  0.03281876    -0.73300
O1328       O  0.83845580  0.79654674  0.10205053    -0.72000
Cu1329     Cu  0.92332001  0.75199228  0.06840284     1.04600
Cu1330     Cu  0.83624987  0.75181237  0.06687034     1.04300
C1331       C  0.87916761  0.80867010  0.11534974     0.94300
C1332       C  0.88022678  0.68592936  0.02484510     0.93400
C1333       C  0.88006909  0.81273859  0.01919451     0.85500
C1334       C  0.87952995  0.70467744  0.12442342     0.91800
C1335       C  0.87865671  0.79530578  0.81893776     0.87500
C1336       C  0.92250492  0.79006919  0.79464487    -0.52700
C1337       C  0.92169739  0.75386903  0.77616898     0.10400
C1338       C  0.87769194  0.72632267  0.78548336     0.21400
C1339       C  0.83352736  0.79007535  0.79462286    -0.53500
C1340       C  0.83327046  0.75388593  0.77613774     0.10500
C1341       C  0.87925800  0.75843002  0.84340337    -0.53000
C1342       C  0.87878008  0.72260307  0.82633145     0.11100
H1343       H  0.95014141  0.81363860  0.79219673     0.15600
H1344       H  0.87731703  0.69596072  0.77301234     0.01300
H1345       H  0.80582312  0.81366081  0.79215418     0.15900
H1346       H  0.88002249  0.76035393  0.87237634     0.15700
O1347       O  0.92074986  0.88012197  0.91636080    -0.71900
O1348       O  0.92088259  0.96336787  0.99524275    -0.72900
O1349       O  0.92074501  0.87063534  0.99159740    -0.61500
O1350       O  0.92085093  0.96347040  0.91968353    -0.70000
O1351       O  0.83918895  0.96347262  0.91875852    -0.69500
O1352       O  0.83952564  0.87064573  0.99055677    -0.60800
O1353       O  0.83965391  0.96327722  0.99425261    -0.73300
O1354       O  0.83910271  0.88016272  0.91537861    -0.72000
Cu1355     Cu  0.92364411  0.91932034  0.95664725     1.04600
Cu1356     Cu  0.83656579  0.91931302  0.95559031     1.04300
C1357       C  0.87985601  0.87074053  0.90155829     0.94300
C1358       C  0.88028348  0.97991165  0.00414712     0.93400
C1359       C  0.88012763  0.85310171  0.99939573     0.85500
C1360       C  0.87995889  0.97461485  0.90571487     0.91800
C1361       C  0.87920137  0.88602408  0.19834001     0.87500
C1362       C  0.92444291  0.88620381  0.22279872    -0.52700
C1363       C  0.92548468  0.91783814  0.24636410     0.10400
C1364       C  0.88031514  0.94680584  0.24259910     0.21400
C1365       C  0.83535153  0.88594844  0.22290711    -0.53500
C1366       C  0.83548937  0.91760512  0.24647354     0.10500
C1367       C  0.87855343  0.92711065  0.18002142    -0.53000
C1368       C  0.87916863  0.95908279  0.20248338     0.11100
H1369       H  0.95206310  0.86221698  0.22281258     0.15600
H1370       H  0.88081940  0.97277818  0.26145301     0.01300
H1371       H  0.80782502  0.86185275  0.22294252     0.15900
H1372       H  0.87787157  0.93078477  0.15111930     0.15700
O1373       O  0.96073982  0.95721412  0.52990089    -0.71900
O1374       O  0.95946238  0.86857967  0.60582035    -0.72900
O1375       O  0.95938466  0.95206905  0.60577509    -0.61500
O1376       O  0.96087644  0.86432102  0.53067844    -0.70000
O1377       O  0.79209476  0.86445911  0.53251944    -0.69500
O1378       O  0.79101546  0.95214062  0.60748520    -0.60800
O1379       O  0.79112833  0.86871620  0.60756679    -0.73300
O1380       O  0.79195196  0.95720902  0.53171539    -0.72000
Cu1381     Cu  0.95728734  0.91062760  0.56709048     1.04600
Cu1382     Cu  0.79435620  0.91072150  0.56899765     1.04300
C1383       C  0.00151193  0.97415749  0.52156673     0.94300
C1384       C  0.00012575  0.85796779  0.62044639     0.93400
C1385       C  0.00001472  0.96195734  0.62074067     0.85500
C1386       C  0.00166850  0.84722440  0.52302841     0.91800
O1387       O  0.79548250  0.70670641  0.41697566    -0.71900
O1388       O  0.79301647  0.79037296  0.49553897    -0.72900
O1389       O  0.79288805  0.69769836  0.49293088    -0.61500
O1390       O  0.79583960  0.79005981  0.42077505    -0.70000
O1391       O  0.96416965  0.79025088  0.41823545    -0.69500
O1392       O  0.96170416  0.69772208  0.49050843    -0.60800
O1393       O  0.96179909  0.79046311  0.49309316    -0.73300
O1394       O  0.96390914  0.70686188  0.41452214    -0.72000
Cu1395     Cu  0.79708833  0.74597199  0.45752104     1.04600
Cu1396     Cu  0.96004492  0.74610597  0.45487582     1.04300
C1397       C  0.75510892  0.69790937  0.40107632     0.94300
C1398       C  0.75216487  0.80738013  0.50316228     0.93400
C1399       C  0.75201824  0.68056277  0.50069048     0.85500
C1400       C  0.75549167  0.80182729  0.40643321     0.91800
C1401       C  0.75725130  0.88113299  0.32355519     0.87500
C1402       C  0.96209583  0.88316458  0.29901730    -0.52700
C1403       C  0.96121733  0.91657799  0.27671552     0.10400
C1404       C  0.75643844  0.94518817  0.28165108     0.21400
C1405       C  0.80121760  0.88295206  0.29909196    -0.53500
C1406       C  0.80123567  0.91639735  0.27678205     0.10500
C1407       C  0.75793299  0.92085117  0.34337498    -0.53000
C1408       C  0.75743243  0.95442268  0.32212291     0.11100
H1409       H  0.93437480  0.85924186  0.29804774     0.15600
H1410       H  0.75604689  0.97255094  0.26381940     0.01300
H1411       H  0.82868552  0.85890962  0.29817156     0.15900
H1412       H  0.75840528  0.92243416  0.37236590     0.15700
C1413       C  0.00049238  0.70304592  0.70468618     0.87500
C1414       C  0.79577497  0.70781340  0.72912317    -0.52700
C1415       C  0.79595407  0.74363761  0.74813978     0.10400
C1416       C  0.75149079  0.77124764  0.73925418     0.21400
C1417       C  0.95660520  0.70774629  0.72920608    -0.53500
C1418       C  0.95751374  0.74358790  0.74820531     0.10500
C1419       C  0.99981415  0.74053214  0.68088457    -0.53000
C1420       C  0.00031768  0.77589879  0.69861394     0.11100
H1421       H  0.82376182  0.68437490  0.73126874     0.15600
H1422       H  0.75186811  0.80139496  0.75194517     0.01300
H1423       H  0.92872572  0.68427606  0.73138975     0.15900
H1424       H  0.99903316  0.73937083  0.65186932     0.15700
C1425       C  0.75678988  0.99282014  0.33995429    -0.12300
C1426       C  0.75606178  0.67958168  0.36661863    -0.13800
C1427       C  0.75666860  0.82629773  0.37509271    -0.12300
C1428       C  0.75739827  0.84747068  0.34893517    -0.13800
C1429       C  0.99989563  0.66761827  0.68154789    -0.12300
C1430       C  0.99966493  0.98189759  0.65435153    -0.13800
C1431       C  0.99979540  0.83518915  0.65285330    -0.12300
C1432       C  0.99994311  0.81292599  0.67836565    -0.13800
C1433       C  0.87965350  0.85117651  0.86786716    -0.12300
C1434       C  0.87923989  0.83143640  0.84111660    -0.13800
C1435       C  0.87930326  0.68617195  0.84749737    -0.12300
C1436       C  0.87975570  0.99784014  0.87345696    -0.13800
C1437       C  0.87873107  0.85418913  0.17192880    -0.12300
C1438       C  0.87881985  0.83364030  0.14583271    -0.13800
C1439       C  0.87931849  0.99871113  0.18591499    -0.12300
C1440       C  0.87938981  0.68638593  0.15933720    -0.13800
loop_ 
_geom_bond_atom_site_label_1 
_geom_bond_atom_site_label_2 
_geom_bond_distance 
_geom_bond_site_symmetry_2 
_ccdc_geom_bond_type 
O1           Cu9   1.982       .  S
O1           C11   1.273       .  A
O2           Cu9   2.059       .  S
O2           C12   1.284       .  A
O3           Cu9   2.047       .  S
O3           C13   1.283       .  A
O4           Cu9   2.002       .  S
O4           C14   1.276       .  A
O5          Cu10   2.003       .  S
O5           C14   1.276       .  A
O6          Cu10   2.048       .  S
O6           C13   1.283       .  A
O7          Cu10   2.057       .  S
O7           C12   1.284       .  A
O8          Cu10   1.980       .  S
O8           C11   1.273       .  A
Cu9         Cu10   2.374       .  S
C11         C118   1.412       .  S
C12         C278   1.509   1_545  S
C13          C39   1.506   1_554  S
C14         C120   1.434       .  S
C15          C16   1.528       .  S
C15          C21   1.506       .  S
C15          C19   1.528       .  S
C15         C114   1.451       .  S
C16          H23   1.081       .  S
C16          C17   1.377       .  D
C17          C18   1.542       .  S
C17          C98   1.488       .  S
C18          C22   1.536       .  S
C18          C20   1.542       .  S
C18          H24   1.101       .  S
C19          H25   1.081       .  S
C19          C20   1.377       .  D
C20          C95   1.489       .  S
C21          H26   1.090       .  S
C21          C22   1.340       .  D
C22         C115   1.423       .  S
O27         Cu35   1.992       .  S
O27          C37   1.275       .  A
O28         Cu35   2.055       .  S
O28          C38   1.284   1_556  A
O29         Cu35   2.052       .  S
O29          C39   1.284       .  A
O30         Cu35   1.990       .  S
O30          C40   1.275       .  A
O31         Cu36   1.989       .  S
O31          C40   1.274       .  A
O32         Cu36   2.051       .  S
O32          C39   1.283       .  A
O33         Cu36   2.053       .  S
O33          C38   1.284   1_556  A
O34         Cu36   1.991       .  S
O34          C37   1.275       .  A
Cu35        Cu36   2.374       .  S
C37         C113   1.423       .  S
C38         C132   1.509       .  S
C40         C116   1.422       .  S
C41          C42   1.524       .  S
C41          C47   1.501       .  S
C41          C45   1.524       .  S
C41         C117   1.444       .  S
C42          H49   1.087       .  S
C42          C43   1.367       .  D
C43          C44   1.557       .  S
C43          C83   1.485       .  S
C44          C48   1.554       .  S
C44          C46   1.557       .  S
C44          H50   1.110       .  S
C45          H51   1.087       .  S
C45          C46   1.368       .  D
C46          C86   1.486       .  S
C47          H52   1.090       .  S
C47          C48   1.349       .  D
C48         C119   1.430       .  S
O53         Cu61   2.057       .  S
O53          C63   1.284       .  A
O54         Cu61   1.989       .  S
O54          C64   1.274       .  A
O55         Cu61   1.996       .  S
O55          C65   1.275       .  A
O56         Cu61   2.053       .  S
O56          C66   1.284       .  A
O57         Cu62   2.050       .  S
O57        C1146   1.283       .  A
O58         Cu62   1.993       .  S
O58        C1145   1.275       .  A
O59         Cu62   1.986       .  S
O59        C1144   1.274       .  A
O60         Cu62   2.054       .  S
O60        C1143   1.284       .  A
Cu61       Cu422   2.374       .  S
Cu62      Cu1141   2.374   1_455  S
C63         O420   1.284       .  A
C63         C559   1.509       .  S
C64         O419   1.274       .  A
C64         C111   1.419       .  S
C65         O418   1.275       .  A
C65         C110   1.426       .  S
C66         O417   1.283       .  A
C66         C438   1.507       .  S
O67         Cu75   2.001       .  S
O67          C77   1.276       .  A
O68         Cu75   2.050       .  S
O68          C78   1.284       .  A
O69         Cu75   2.055       .  S
O69          C79   1.283       .  A
O70         Cu75   1.983       .  S
O70          C80   1.273       .  A
O71         Cu76   1.986       .  S
O71         C440   1.274       .  A
O72         Cu76   2.059       .  S
O72         C439   1.284       .  A
O73         Cu76   2.050       .  S
O73         C438   1.283       .  A
O74         Cu76   1.999       .  S
O74         C437   1.276       .  A
Cu75      Cu1156   2.373   1_455  S
Cu76       Cu435   2.373       .  S
C77        O1154   1.276   1_455  A
C77         C106   1.432       .  S
C78        O1153   1.283   1_455  A
C78        C1146   1.507       .  S
C79        O1152   1.284   1_455  A
C79        C1383   1.509   1_545  S
C80        O1151   1.274   1_455  A
C80         C107   1.416       .  S
C81          C87   1.502       .  S
C81          C85   1.525       .  S
C81        C1162   1.524   1_455  S
C81         C108   1.447       .  S
C82         C441   1.524       .  S
C82          H89   1.087       .  S
C82          C83   1.368       .  D
C83         C444   1.556       .  S
C84          C88   1.552       .  S
C84          C86   1.557       .  S
C84        C1163   1.556   1_455  S
C84          H90   1.110       .  S
C85          H91   1.087       .  S
C85          C86   1.369       .  D
C87          H92   1.090       .  S
C87          C88   1.349       .  D
C88         C105   1.428       .  S
C93          C99   1.507       .  S
C93          C97   1.532       .  S
C93         C454   1.533       .  S
C93         C109   1.454       .  S
C94        C1173   1.533       .  S
C94         H101   1.083       .  S
C94          C95   1.377       .  D
C95          C96   1.541       .  S
C96        C1180   1.531       .  S
C96        C1178   1.540   1_455  S
C96         H102   1.098       .  S
C97         H103   1.083       .  S
C97          C98   1.377       .  D
C98         C456   1.540       .  S
C99         H104   1.090       .  S
C99         C100   1.339       .  D
C100        C456   1.531       .  S
C100        C112   1.421       .  S
C105        C226   1.203       .  T
C106        C345   1.203   1_545  T
C107        C108   1.195       .  T
C109        C350   1.201   1_545  T
C110        C229   1.201       .  T
C111        C112   1.196       .  T
C113        C114   1.199       .  T
C115        C356   1.198   1_545  T
C116        C235   1.198       .  T
C117        C118   1.193       .  T
C119        C240   1.205       .  T
C120        C359   1.205   1_545  T
O121       Cu129   1.982       .  S
O121        C131   1.273       .  A
O122       Cu129   2.059       .  S
O122        C132   1.284       .  A
O123       Cu129   2.047       .  S
O123        C133   1.283       .  A
O124       Cu129   2.002       .  S
O124        C134   1.276       .  A
O125       Cu130   2.003       .  S
O125        C134   1.276       .  A
O126       Cu130   2.048       .  S
O126        C133   1.283       .  A
O127       Cu130   2.057       .  S
O127        C132   1.284       .  A
O128       Cu130   1.980       .  S
O128        C131   1.273       .  A
Cu129      Cu130   2.374       .  S
C131        C238   1.412       .  S
C133        C159   1.506   1_554  S
C134        C240   1.434       .  S
C135        C136   1.528       .  S
C135        C141   1.506       .  S
C135        C139   1.528       .  S
C135        C234   1.451       .  S
C136        H143   1.081       .  S
C136        C137   1.377       .  D
C137        C138   1.542       .  S
C137        C218   1.488       .  S
C138        C142   1.536       .  S
C138        C140   1.542       .  S
C138        H144   1.101       .  S
C139        H145   1.081       .  S
C139        C140   1.377       .  D
C140        C215   1.489       .  S
C141        H146   1.090       .  S
C141        C142   1.340       .  D
C142        C235   1.423       .  S
O147       Cu155   1.992       .  S
O147        C157   1.275       .  A
O148       Cu155   2.055       .  S
O148        C158   1.284   1_556  A
O149       Cu155   2.052       .  S
O149        C159   1.284       .  A
O150       Cu155   1.990       .  S
O150        C160   1.275       .  A
O151       Cu156   1.989       .  S
O151        C160   1.274       .  A
O152       Cu156   2.051       .  S
O152        C159   1.283       .  A
O153       Cu156   2.053       .  S
O153        C158   1.284   1_556  A
O154       Cu156   1.991       .  S
O154        C157   1.275       .  A
Cu155      Cu156   2.374       .  S
C157        C233   1.423       .  S
C158        C252   1.509       .  S
C160        C236   1.422       .  S
C161        C162   1.524       .  S
C161        C167   1.501       .  S
C161        C165   1.524       .  S
C161        C237   1.444       .  S
C162        H169   1.087       .  S
C162        C163   1.367       .  D
C163        C164   1.557       .  S
C163        C203   1.485       .  S
C164        C168   1.554       .  S
C164        C166   1.557       .  S
C164        H170   1.110       .  S
C165        H171   1.087       .  S
C165        C166   1.368       .  D
C166        C206   1.486       .  S
C167        H172   1.090       .  S
C167        C168   1.349       .  D
C168        C239   1.430       .  S
O173       Cu181   2.057       .  S
O173        C183   1.284       .  A
O174       Cu181   1.989       .  S
O174        C184   1.274       .  A
O175       Cu181   1.996       .  S
O175        C185   1.275       .  A
O176       Cu181   2.053       .  S
O176        C186   1.284       .  A
O177       Cu182   2.050       .  S
O177       C1266   1.283       .  A
O178       Cu182   1.993       .  S
O178       C1265   1.275       .  A
O179       Cu182   1.986       .  S
O179       C1264   1.274       .  A
O180       Cu182   2.054       .  S
O180       C1263   1.284       .  A
Cu181      Cu542   2.374       .  S
Cu182     Cu1261   2.374   1_455  S
C183        O540   1.284       .  A
C183        C679   1.509       .  S
C184        O539   1.274       .  A
C184        C231   1.419       .  S
C185        O538   1.275       .  A
C185        C230   1.426       .  S
C186        O537   1.283       .  A
C186        C558   1.507       .  S
O187       Cu195   2.001       .  S
O187        C197   1.276       .  A
O188       Cu195   2.050       .  S
O188        C198   1.284       .  A
O189       Cu195   2.055       .  S
O189        C199   1.283       .  A
O190       Cu195   1.983       .  S
O190        C200   1.273       .  A
O191       Cu196   1.986       .  S
O191        C560   1.274       .  A
O192       Cu196   2.059       .  S
O192        C559   1.284       .  A
O193       Cu196   2.050       .  S
O193        C558   1.283       .  A
O194       Cu196   1.999       .  S
O194        C557   1.276       .  A
Cu195     Cu1276   2.373   1_455  S
Cu196      Cu555   2.373       .  S
C197       O1274   1.276   1_455  A
C197        C226   1.432       .  S
C198       O1273   1.283   1_455  A
C198       C1266   1.507       .  S
C199       O1272   1.284   1_455  A
C199       C1143   1.509       .  S
C200       O1271   1.274   1_455  A
C200        C227   1.416       .  S
C201       C1282   1.524   1_455  S
C201        C207   1.502       .  S
C201        C205   1.525       .  S
C201        C228   1.447       .  S
C202        C561   1.524       .  S
C202        H209   1.087       .  S
C202        C203   1.368       .  D
C203        C564   1.556       .  S
C204       C1283   1.556   1_455  S
C204        C208   1.552       .  S
C204        C206   1.557       .  S
C204        H210   1.110       .  S
C205        H211   1.087       .  S
C205        C206   1.369       .  D
C207        H212   1.090       .  S
C207        C208   1.349       .  D
C208        C225   1.428       .  S
C213        C574   1.533       .  S
C213        C219   1.507       .  S
C213        C217   1.532       .  S
C213        C229   1.454       .  S
C214       C1293   1.533       .  S
C214        H221   1.083       .  S
C214        C215   1.377       .  D
C215        C216   1.541       .  S
C216       C1300   1.531       .  S
C216       C1298   1.540   1_455  S
C216        H222   1.098       .  S
C217        H223   1.082       .  S
C217        C218   1.377       .  D
C218        C576   1.540       .  S
C219        H224   1.090       .  S
C219        C220   1.339       .  D
C220        C576   1.531       .  S
C220        C232   1.421       .  S
C225        C346   1.203       .  T
C227        C228   1.195       .  T
C230        C349   1.201       .  T
C231        C232   1.196       .  T
C233        C234   1.199       .  T
C236        C355   1.198       .  T
C237        C238   1.193       .  T
C239        C360   1.205       .  T
O241       Cu249   1.982       .  S
O241        C251   1.273       .  A
O242       Cu249   2.059       .  S
O242        C252   1.284       .  A
O243       Cu249   2.047       .  S
O243        C253   1.283       .  A
O244       Cu249   2.002       .  S
O244        C254   1.276       .  A
O245       Cu250   2.003       .  S
O245        C254   1.276       .  A
O246       Cu250   2.048       .  S
O246        C253   1.283       .  A
O247       Cu250   2.057       .  S
O247        C252   1.284       .  A
O248       Cu250   1.980       .  S
O248        C251   1.273       .  A
Cu249      Cu250   2.374       .  S
C251        C358   1.412       .  S
C253        C279   1.506   1_554  S
C254        C360   1.434       .  S
C255        C256   1.528       .  S
C255        C261   1.506       .  S
C255        C259   1.528       .  S
C255        C354   1.451       .  S
C256        H263   1.081       .  S
C256        C257   1.377       .  D
C257        C258   1.542       .  S
C257        C338   1.488       .  S
C258        C262   1.536       .  S
C258        C260   1.542       .  S
C258        H264   1.101       .  S
C259        H265   1.081       .  S
C259        C260   1.377       .  D
C260        C335   1.489       .  S
C261        H266   1.090       .  S
C261        C262   1.340       .  D
C262        C355   1.423       .  S
O267       Cu275   1.992       .  S
O267        C277   1.275       .  A
O268       Cu275   2.055       .  S
O268        C278   1.284   1_556  A
O269       Cu275   2.052       .  S
O269        C279   1.284       .  A
O270       Cu275   1.990       .  S
O270        C280   1.275       .  A
O271       Cu276   1.989       .  S
O271        C280   1.274       .  A
O272       Cu276   2.051       .  S
O272        C279   1.283       .  A
O273       Cu276   2.053       .  S
O273        C278   1.284   1_556  A
O274       Cu276   1.991       .  S
O274        C277   1.275       .  A
Cu275      Cu276   2.374       .  S
C277        C353   1.423       .  S
C280        C356   1.422       .  S
C281        C282   1.524       .  S
C281        C287   1.501       .  S
C281        C285   1.524       .  S
C281        C357   1.444       .  S
C282        H289   1.087       .  S
C282        C283   1.367       .  D
C283        C284   1.557       .  S
C283        C323   1.485       .  S
C284        C288   1.554       .  S
C284        C286   1.557       .  S
C284        H290   1.110       .  S
C285        H291   1.087       .  S
C285        C286   1.368       .  D
C286        C326   1.486       .  S
C287        H292   1.090       .  S
C287        C288   1.349       .  D
C288        C359   1.430       .  S
O293       Cu301   2.057       .  S
O293        C303   1.284       .  A
O294       Cu301   1.989       .  S
O294        C304   1.274       .  A
O295       Cu301   1.996       .  S
O295        C305   1.275       .  A
O296       Cu301   2.053       .  S
O296        C306   1.284       .  A
O297       Cu302   2.050       .  S
O297       C1386   1.283       .  A
O298       Cu302   1.993       .  S
O298       C1385   1.275       .  A
O299       Cu302   1.986       .  S
O299       C1384   1.274       .  A
O300       Cu302   2.054       .  S
O300       C1383   1.284       .  A
Cu301      Cu662   2.374       .  S
Cu302     Cu1381   2.374   1_455  S
C303        O660   1.284       .  A
C303        C439   1.509   1_565  S
C304        O659   1.274       .  A
C304        C351   1.419       .  S
C305        O658   1.275       .  A
C305        C350   1.426       .  S
C306        O657   1.283       .  A
C306        C678   1.507       .  S
O307       Cu315   2.001       .  S
O307        C317   1.276       .  A
O308       Cu315   2.050       .  S
O308        C318   1.284       .  A
O309       Cu315   2.055       .  S
O309        C319   1.283       .  A
O310       Cu315   1.983       .  S
O310        C320   1.273       .  A
O311       Cu316   1.986       .  S
O311        C680   1.274       .  A
O312       Cu316   2.059       .  S
O312        C679   1.284       .  A
O313       Cu316   2.050       .  S
O313        C678   1.283       .  A
O314       Cu316   1.999       .  S
O314        C677   1.276       .  A
Cu315     Cu1396   2.373   1_455  S
Cu316      Cu675   2.373       .  S
C317       O1394   1.276   1_455  A
C317        C346   1.432       .  S
C318       O1393   1.283   1_455  A
C318       C1386   1.507       .  S
C319       O1392   1.284   1_455  A
C319       C1263   1.509       .  S
C320       O1391   1.274   1_455  A
C320        C347   1.416       .  S
C321       C1402   1.524   1_455  S
C321        C327   1.502       .  S
C321        C325   1.525       .  S
C321        C348   1.447       .  S
C322        C681   1.524       .  S
C322        H329   1.087       .  S
C322        C323   1.368       .  D
C323        C684   1.556       .  S
C324       C1403   1.556   1_455  S
C324        C328   1.552       .  S
C324        C326   1.557       .  S
C324        H330   1.110       .  S
C325        H331   1.087       .  S
C325        C326   1.369       .  D
C327        H332   1.090       .  S
C327        C328   1.349       .  D
C328        C345   1.428       .  S
C333        C694   1.533       .  S
C333        C339   1.507       .  S
C333        C337   1.532       .  S
C333        C349   1.454       .  S
C334       C1413   1.533       .  S
C334        H341   1.083       .  S
C334        C335   1.377       .  D
C335        C336   1.541       .  S
C336       C1420   1.531       .  S
C336       C1418   1.540   1_455  S
C336        H342   1.098       .  S
C337        H343   1.083       .  S
C337        C338   1.377       .  D
C338        C696   1.540       .  S
C339        H344   1.090       .  S
C339        C340   1.339       .  D
C340        C696   1.531       .  S
C340        C352   1.421       .  S
C347        C348   1.195       .  T
C351        C352   1.196       .  T
C353        C354   1.199       .  T
C357        C358   1.193       .  T
O361       Cu369   1.982       .  S
O361        C371   1.273       .  A
O362       Cu369   2.059       .  S
O362        C372   1.284       .  A
O363       Cu369   2.047       .  S
O363        C373   1.283       .  A
O364       Cu369   2.002       .  S
O364        C374   1.276       .  A
O365       Cu370   2.003       .  S
O365        C374   1.276       .  A
O366       Cu370   2.048       .  S
O366        C373   1.283       .  A
O367       Cu370   2.057       .  S
O367        C372   1.284       .  A
O368       Cu370   1.980       .  S
O368        C371   1.273       .  A
Cu369      Cu370   2.374       .  S
C371        C478   1.412       .  S
C372        C638   1.509   1_545  S
C373        C399   1.506   1_554  S
C374        C480   1.434       .  S
C375        C376   1.528       .  S
C375        C381   1.506       .  S
C375        C379   1.528       .  S
C375        C474   1.451       .  S
C376        H383   1.081       .  S
C376        C377   1.377       .  D
C377        C378   1.542       .  S
C377        C458   1.488       .  S
C378        C382   1.536       .  S
C378        C380   1.542       .  S
C378        H384   1.101       .  S
C379        H385   1.081       .  S
C379        C380   1.377       .  D
C380        C455   1.489       .  S
C381        H386   1.090       .  S
C381        C382   1.340       .  D
C382        C475   1.423       .  S
O387       Cu395   1.992       .  S
O387        C397   1.275       .  A
O388       Cu395   2.055       .  S
O388        C398   1.284   1_556  A
O389       Cu395   2.052       .  S
O389        C399   1.284       .  A
O390       Cu395   1.990       .  S
O390        C400   1.275       .  A
O391       Cu396   1.989       .  S
O391        C400   1.274       .  A
O392       Cu396   2.051       .  S
O392        C399   1.283       .  A
O393       Cu396   2.053       .  S
O393        C398   1.284   1_556  A
O394       Cu396   1.991       .  S
O394        C397   1.275       .  A
Cu395      Cu396   2.374       .  S
C397        C473   1.423       .  S
C398        C492   1.509       .  S
C400        C476   1.422       .  S
C401        C402   1.524       .  S
C401        C407   1.501       .  S
C401        C405   1.524       .  S
C401        C477   1.444       .  S
C402        H409   1.087       .  S
C402        C403   1.367       .  D
C403        C404   1.557       .  S
C403        C443   1.485       .  S
C404        C408   1.554       .  S
C404        C406   1.557       .  S
C404        H410   1.110       .  S
C405        H411   1.087       .  S
C405        C406   1.368       .  D
C406        C446   1.486       .  S
C407        H412   1.090       .  S
C407        C408   1.349       .  D
C408        C479   1.430       .  S
O413       Cu421   2.057       .  S
O413        C423   1.284       .  A
O414       Cu421   1.989       .  S
O414        C424   1.274       .  A
O415       Cu421   1.996       .  S
O415        C425   1.275       .  A
O416       Cu421   2.053       .  S
O416        C426   1.284       .  A
O417       Cu422   2.050       .  S
O418       Cu422   1.993       .  S
O419       Cu422   1.986       .  S
O420       Cu422   2.054       .  S
Cu421      Cu782   2.374       .  S
C423        O780   1.284       .  A
C423        C919   1.509       .  S
C424        O779   1.274       .  A
C424        C471   1.419       .  S
C425        O778   1.275       .  A
C425        C470   1.426       .  S
C426        O777   1.283       .  A
C426        C798   1.507       .  S
O427       Cu435   2.001       .  S
O427        C437   1.276       .  A
O428       Cu435   2.050       .  S
O428        C438   1.284       .  A
O429       Cu435   2.055       .  S
O429        C439   1.283       .  A
O430       Cu435   1.983       .  S
O430        C440   1.273       .  A
O431       Cu436   1.986       .  S
O431        C800   1.274       .  A
O432       Cu436   2.059       .  S
O432        C799   1.284       .  A
O433       Cu436   2.050       .  S
O433        C798   1.283       .  A
O434       Cu436   1.999       .  S
O434        C797   1.276       .  A
Cu436      Cu795   2.373       .  S
C437        C466   1.432       .  S
C440        C467   1.416       .  S
C441        C447   1.502       .  S
C441        C445   1.525       .  S
C441        C468   1.447       .  S
C442        C801   1.524       .  S
C442        H449   1.087       .  S
C442        C443   1.368       .  D
C443        C804   1.556       .  S
C444        C448   1.552       .  S
C444        C446   1.557       .  S
C444        H450   1.110       .  S
C445        H451   1.087       .  S
C445        C446   1.369       .  D
C447        H452   1.090       .  S
C447        C448   1.349       .  D
C448        C465   1.428       .  S
C453        C814   1.533       .  S
C453        C459   1.507       .  S
C453        C457   1.532       .  S
C453        C469   1.454       .  S
C454        H461   1.083       .  S
C454        C455   1.377       .  D
C455        C456   1.541       .  S
C456        H462   1.098       .  S
C457        H463   1.083       .  S
C457        C458   1.377       .  D
C458        C816   1.540       .  S
C459        H464   1.090       .  S
C459        C460   1.339       .  D
C460        C816   1.531       .  S
C460        C472   1.421       .  S
C465        C586   1.203       .  T
C466        C705   1.203   1_545  T
C467        C468   1.195       .  T
C469        C710   1.201   1_545  T
C470        C589   1.201       .  T
C471        C472   1.196       .  T
C473        C474   1.199       .  T
C475        C716   1.198   1_545  T
C476        C595   1.198       .  T
C477        C478   1.193       .  T
C479        C600   1.205       .  T
C480        C719   1.205   1_545  T
O481       Cu489   1.982       .  S
O481        C491   1.273       .  A
O482       Cu489   2.059       .  S
O482        C492   1.284       .  A
O483       Cu489   2.047       .  S
O483        C493   1.283       .  A
O484       Cu489   2.002       .  S
O484        C494   1.276       .  A
O485       Cu490   2.003       .  S
O485        C494   1.276       .  A
O486       Cu490   2.048       .  S
O486        C493   1.283       .  A
O487       Cu490   2.057       .  S
O487        C492   1.284       .  A
O488       Cu490   1.980       .  S
O488        C491   1.273       .  A
Cu489      Cu490   2.374       .  S
C491        C598   1.412       .  S
C493        C519   1.506   1_554  S
C494        C600   1.434       .  S
C495        C496   1.528       .  S
C495        C501   1.506       .  S
C495        C499   1.528       .  S
C495        C594   1.451       .  S
C496        H503   1.081       .  S
C496        C497   1.377       .  D
C497        C498   1.542       .  S
C497        C578   1.488       .  S
C498        C502   1.536       .  S
C498        C500   1.542       .  S
C498        H504   1.101       .  S
C499        H505   1.081       .  S
C499        C500   1.377       .  D
C500        C575   1.489       .  S
C501        H506   1.090       .  S
C501        C502   1.340       .  D
C502        C595   1.423       .  S
O507       Cu515   1.992       .  S
O507        C517   1.275       .  A
O508       Cu515   2.055       .  S
O508        C518   1.284   1_556  A
O509       Cu515   2.052       .  S
O509        C519   1.284       .  A
O510       Cu515   1.990       .  S
O510        C520   1.275       .  A
O511       Cu516   1.989       .  S
O511        C520   1.274       .  A
O512       Cu516   2.051       .  S
O512        C519   1.283       .  A
O513       Cu516   2.053       .  S
O513        C518   1.284   1_556  A
O514       Cu516   1.991       .  S
O514        C517   1.275       .  A
Cu515      Cu516   2.374       .  S
C517        C593   1.423       .  S
C518        C612   1.509       .  S
C520        C596   1.422       .  S
C521        C522   1.524       .  S
C521        C527   1.501       .  S
C521        C525   1.524       .  S
C521        C597   1.444       .  S
C522        H529   1.087       .  S
C522        C523   1.367       .  D
C523        C524   1.557       .  S
C523        C563   1.485       .  S
C524        C528   1.554       .  S
C524        C526   1.557       .  S
C524        H530   1.110       .  S
C525        H531   1.087       .  S
C525        C526   1.368       .  D
C526        C566   1.486       .  S
C527        H532   1.090       .  S
C527        C528   1.349       .  D
C528        C599   1.430       .  S
O533       Cu541   2.057       .  S
O533        C543   1.284       .  A
O534       Cu541   1.989       .  S
O534        C544   1.274       .  A
O535       Cu541   1.996       .  S
O535        C545   1.275       .  A
O536       Cu541   2.053       .  S
O536        C546   1.284       .  A
O537       Cu542   2.050       .  S
O538       Cu542   1.993       .  S
O539       Cu542   1.986       .  S
O540       Cu542   2.054       .  S
Cu541      Cu902   2.374       .  S
C543        O900   1.284       .  A
C543       C1039   1.509       .  S
C544        O899   1.274       .  A
C544        C591   1.419       .  S
C545        O898   1.275       .  A
C545        C590   1.426       .  S
C546        O897   1.283       .  A
C546        C918   1.507       .  S
O547       Cu555   2.001       .  S
O547        C557   1.276       .  A
O548       Cu555   2.050       .  S
O548        C558   1.284       .  A
O549       Cu555   2.055       .  S
O549        C559   1.283       .  A
O550       Cu555   1.983       .  S
O550        C560   1.273       .  A
O551       Cu556   1.986       .  S
O551        C920   1.274       .  A
O552       Cu556   2.059       .  S
O552        C919   1.284       .  A
O553       Cu556   2.050       .  S
O553        C918   1.283       .  A
O554       Cu556   1.999       .  S
O554        C917   1.276       .  A
Cu556      Cu915   2.373       .  S
C557        C586   1.432       .  S
C560        C587   1.416       .  S
C561        C567   1.502       .  S
C561        C565   1.525       .  S
C561        C588   1.447       .  S
C562        C921   1.524       .  S
C562        H569   1.087       .  S
C562        C563   1.368       .  D
C563        C924   1.556       .  S
C564        C568   1.552       .  S
C564        C566   1.557       .  S
C564        H570   1.110       .  S
C565        H571   1.087       .  S
C565        C566   1.369       .  D
C567        H572   1.090       .  S
C567        C568   1.349       .  D
C568        C585   1.428       .  S
C573        C934   1.533       .  S
C573        C579   1.507       .  S
C573        C577   1.532       .  S
C573        C589   1.454       .  S
C574        H581   1.083       .  S
C574        C575   1.377       .  D
C575        C576   1.541       .  S
C576        H582   1.098       .  S
C577        H583   1.083       .  S
C577        C578   1.377       .  D
C578        C936   1.540       .  S
C579        H584   1.090       .  S
C579        C580   1.339       .  D
C580        C936   1.531       .  S
C580        C592   1.421       .  S
C585        C706   1.203       .  T
C587        C588   1.195       .  T
C590        C709   1.201       .  T
C591        C592   1.196       .  T
C593        C594   1.199       .  T
C596        C715   1.198       .  T
C597        C598   1.193       .  T
C599        C720   1.205       .  T
O601       Cu609   1.982       .  S
O601        C611   1.273       .  A
O602       Cu609   2.059       .  S
O602        C612   1.284       .  A
O603       Cu609   2.047       .  S
O603        C613   1.283       .  A
O604       Cu609   2.002       .  S
O604        C614   1.276       .  A
O605       Cu610   2.003       .  S
O605        C614   1.276       .  A
O606       Cu610   2.048       .  S
O606        C613   1.283       .  A
O607       Cu610   2.057       .  S
O607        C612   1.284       .  A
O608       Cu610   1.980       .  S
O608        C611   1.273       .  A
Cu609      Cu610   2.374       .  S
C611        C718   1.412       .  S
C613        C639   1.506   1_554  S
C614        C720   1.434       .  S
C615        C616   1.528       .  S
C615        C621   1.506       .  S
C615        C619   1.528       .  S
C615        C714   1.451       .  S
C616        H623   1.081       .  S
C616        C617   1.377       .  D
C617        C618   1.542       .  S
C617        C698   1.488       .  S
C618        C622   1.536       .  S
C618        C620   1.542       .  S
C618        H624   1.101       .  S
C619        H625   1.081       .  S
C619        C620   1.377       .  D
C620        C695   1.489       .  S
C621        H626   1.090       .  S
C621        C622   1.340       .  D
C622        C715   1.423       .  S
O627       Cu635   1.992       .  S
O627        C637   1.275       .  A
O628       Cu635   2.055       .  S
O628        C638   1.284   1_556  A
O629       Cu635   2.052       .  S
O629        C639   1.284       .  A
O630       Cu635   1.990       .  S
O630        C640   1.275       .  A
O631       Cu636   1.989       .  S
O631        C640   1.274       .  A
O632       Cu636   2.051       .  S
O632        C639   1.283       .  A
O633       Cu636   2.053       .  S
O633        C638   1.284   1_556  A
O634       Cu636   1.991       .  S
O634        C637   1.275       .  A
Cu635      Cu636   2.374       .  S
C637        C713   1.423       .  S
C640        C716   1.422       .  S
C641        C642   1.524       .  S
C641        C647   1.501       .  S
C641        C645   1.524       .  S
C641        C717   1.444       .  S
C642        H649   1.087       .  S
C642        C643   1.367       .  D
C643        C644   1.557       .  S
C643        C683   1.485       .  S
C644        C648   1.554       .  S
C644        C646   1.557       .  S
C644        H650   1.110       .  S
C645        H651   1.087       .  S
C645        C646   1.368       .  D
C646        C686   1.486       .  S
C647        H652   1.090       .  S
C647        C648   1.349       .  D
C648        C719   1.430       .  S
O653       Cu661   2.057       .  S
O653        C663   1.284       .  A
O654       Cu661   1.989       .  S
O654        C664   1.274       .  A
O655       Cu661   1.996       .  S
O655        C665   1.275       .  A
O656       Cu661   2.053       .  S
O656        C666   1.284       .  A
O657       Cu662   2.050       .  S
O658       Cu662   1.993       .  S
O659       Cu662   1.986       .  S
O660       Cu662   2.054       .  S
Cu661     Cu1022   2.374       .  S
C663       O1020   1.284       .  A
C663        C799   1.509   1_565  S
C664       O1019   1.274       .  A
C664        C711   1.419       .  S
C665       O1018   1.275       .  A
C665        C710   1.426       .  S
C666       O1017   1.283       .  A
C666       C1038   1.507       .  S
O667       Cu675   2.001       .  S
O667        C677   1.276       .  A
O668       Cu675   2.050       .  S
O668        C678   1.284       .  A
O669       Cu675   2.055       .  S
O669        C679   1.283       .  A
O670       Cu675   1.983       .  S
O670        C680   1.273       .  A
O671       Cu676   1.986       .  S
O671       C1040   1.274       .  A
O672       Cu676   2.059       .  S
O672       C1039   1.284       .  A
O673       Cu676   2.050       .  S
O673       C1038   1.283       .  A
O674       Cu676   1.999       .  S
O674       C1037   1.276       .  A
Cu676     Cu1035   2.373       .  S
C677        C706   1.432       .  S
C680        C707   1.416       .  S
C681        C687   1.502       .  S
C681        C685   1.525       .  S
C681        C708   1.447       .  S
C682       C1041   1.524       .  S
C682        H689   1.087       .  S
C682        C683   1.368       .  D
C683       C1044   1.556       .  S
C684        C688   1.552       .  S
C684        C686   1.557       .  S
C684        H690   1.110       .  S
C685        H691   1.087       .  S
C685        C686   1.369       .  D
C687        H692   1.090       .  S
C687        C688   1.349       .  D
C688        C705   1.428       .  S
C693       C1054   1.533       .  S
C693        C699   1.507       .  S
C693        C697   1.532       .  S
C693        C709   1.454       .  S
C694        H701   1.083       .  S
C694        C695   1.377       .  D
C695        C696   1.541       .  S
C696        H702   1.098       .  S
C697        H703   1.083       .  S
C697        C698   1.377       .  D
C698       C1056   1.540       .  S
C699        H704   1.090       .  S
C699        C700   1.339       .  D
C700       C1056   1.531       .  S
C700        C712   1.421       .  S
C707        C708   1.195       .  T
C711        C712   1.196       .  T
C713        C714   1.199       .  T
C717        C718   1.193       .  T
O721       Cu729   1.982       .  S
O721        C731   1.273       .  A
O722       Cu729   2.059       .  S
O722        C732   1.284       .  A
O723       Cu729   2.047       .  S
O723        C733   1.283       .  A
O724       Cu729   2.002       .  S
O724        C734   1.276       .  A
O725       Cu730   2.003       .  S
O725        C734   1.276       .  A
O726       Cu730   2.048       .  S
O726        C733   1.283       .  A
O727       Cu730   2.057       .  S
O727        C732   1.284       .  A
O728       Cu730   1.980       .  S
O728        C731   1.273       .  A
Cu729      Cu730   2.374       .  S
C731        C838   1.412       .  S
C732        C998   1.509   1_545  S
C733        C759   1.506   1_554  S
C734        C840   1.434       .  S
C735        C736   1.528       .  S
C735        C741   1.506       .  S
C735        C739   1.528       .  S
C735        C834   1.451       .  S
C736        H743   1.081       .  S
C736        C737   1.377       .  D
C737        C738   1.542       .  S
C737        C818   1.488       .  S
C738        C742   1.536       .  S
C738        C740   1.542       .  S
C738        H744   1.101       .  S
C739        H745   1.081       .  S
C739        C740   1.377       .  D
C740        C815   1.489       .  S
C741        H746   1.090       .  S
C741        C742   1.340       .  D
C742        C835   1.423       .  S
O747       Cu755   1.992       .  S
O747        C757   1.275       .  A
O748       Cu755   2.055       .  S
O748        C758   1.284   1_556  A
O749       Cu755   2.052       .  S
O749        C759   1.284       .  A
O750       Cu755   1.990       .  S
O750        C760   1.275       .  A
O751       Cu756   1.989       .  S
O751        C760   1.274       .  A
O752       Cu756   2.051       .  S
O752        C759   1.283       .  A
O753       Cu756   2.053       .  S
O753        C758   1.284   1_556  A
O754       Cu756   1.991       .  S
O754        C757   1.275       .  A
Cu755      Cu756   2.374       .  S
C757        C833   1.423       .  S
C758        C852   1.509       .  S
C760        C836   1.422       .  S
C761        C762   1.524       .  S
C761        C767   1.501       .  S
C761        C765   1.524       .  S
C761        C837   1.444       .  S
C762        H769   1.087       .  S
C762        C763   1.367       .  D
C763        C764   1.557       .  S
C763        C803   1.485       .  S
C764        C768   1.554       .  S
C764        C766   1.557       .  S
C764        H770   1.110       .  S
C765        H771   1.087       .  S
C765        C766   1.368       .  D
C766        C806   1.486       .  S
C767        H772   1.090       .  S
C767        C768   1.349       .  D
C768        C839   1.430       .  S
O773       Cu781   2.057       .  S
O773        C783   1.284       .  A
O774       Cu781   1.989       .  S
O774        C784   1.274       .  A
O775       Cu781   1.996       .  S
O775        C785   1.275       .  A
O776       Cu781   2.053       .  S
O776        C786   1.284       .  A
O777       Cu782   2.050       .  S
O778       Cu782   1.993       .  S
O779       Cu782   1.986       .  S
O780       Cu782   2.054       .  S
Cu781     Cu1142   2.374       .  S
C783       O1140   1.284       .  A
C783       C1279   1.509       .  S
C784       O1139   1.274       .  A
C784        C831   1.419       .  S
C785       O1138   1.275       .  A
C785        C830   1.426       .  S
C786       O1137   1.283       .  A
C786       C1158   1.507       .  S
O787       Cu795   2.001       .  S
O787        C797   1.276       .  A
O788       Cu795   2.050       .  S
O788        C798   1.284       .  A
O789       Cu795   2.055       .  S
O789        C799   1.283       .  A
O790       Cu795   1.983       .  S
O790        C800   1.273       .  A
O791       Cu796   1.986       .  S
O791       C1160   1.274       .  A
O792       Cu796   2.059       .  S
O792       C1159   1.284       .  A
O793       Cu796   2.050       .  S
O793       C1158   1.283       .  A
O794       Cu796   1.999       .  S
O794       C1157   1.276       .  A
Cu796     Cu1155   2.373       .  S
C797        C826   1.432       .  S
C800        C827   1.416       .  S
C801        C807   1.502       .  S
C801        C805   1.525       .  S
C801        C828   1.447       .  S
C802       C1161   1.524       .  S
C802        H809   1.087       .  S
C802        C803   1.368       .  D
C803       C1164   1.556       .  S
C804        C808   1.552       .  S
C804        C806   1.557       .  S
C804        H810   1.110       .  S
C805        H811   1.087       .  S
C805        C806   1.369       .  D
C807        H812   1.090       .  S
C807        C808   1.349       .  D
C808        C825   1.428       .  S
C813       C1174   1.533       .  S
C813        C819   1.507       .  S
C813        C817   1.532       .  S
C813        C829   1.454       .  S
C814        H821   1.083       .  S
C814        C815   1.377       .  D
C815        C816   1.541       .  S
C816        H822   1.098       .  S
C817        H823   1.083       .  S
C817        C818   1.377       .  D
C818       C1176   1.540       .  S
C819        H824   1.090       .  S
C819        C820   1.339       .  D
C820       C1176   1.531       .  S
C820        C832   1.421       .  S
C825        C946   1.203       .  T
C826       C1065   1.203   1_545  T
C827        C828   1.195       .  T
C829       C1070   1.201   1_545  T
C830        C949   1.201       .  T
C831        C832   1.196       .  T
C833        C834   1.199       .  T
C835       C1076   1.198   1_545  T
C836        C955   1.198       .  T
C837        C838   1.193       .  T
C839        C960   1.205       .  T
C840       C1079   1.205   1_545  T
O841       Cu849   1.982       .  S
O841        C851   1.273       .  A
O842       Cu849   2.059       .  S
O842        C852   1.284       .  A
O843       Cu849   2.047       .  S
O843        C853   1.283       .  A
O844       Cu849   2.002       .  S
O844        C854   1.276       .  A
O845       Cu850   2.003       .  S
O845        C854   1.276       .  A
O846       Cu850   2.048       .  S
O846        C853   1.283       .  A
O847       Cu850   2.057       .  S
O847        C852   1.284       .  A
O848       Cu850   1.980       .  S
O848        C851   1.273       .  A
Cu849      Cu850   2.374       .  S
C851        C958   1.412       .  S
C853        C879   1.506   1_554  S
C854        C960   1.434       .  S
C855        C856   1.528       .  S
C855        C861   1.506       .  S
C855        C859   1.528       .  S
C855        C954   1.451       .  S
C856        H863   1.081       .  S
C856        C857   1.377       .  D
C857        C858   1.542       .  S
C857        C938   1.488       .  S
C858        C862   1.536       .  S
C858        C860   1.542       .  S
C858        H864   1.101       .  S
C859        H865   1.081       .  S
C859        C860   1.377       .  D
C860        C935   1.489       .  S
C861        H866   1.090       .  S
C861        C862   1.340       .  D
C862        C955   1.423       .  S
O867       Cu875   1.992       .  S
O867        C877   1.275       .  A
O868       Cu875   2.055       .  S
O868        C878   1.284   1_556  A
O869       Cu875   2.052       .  S
O869        C879   1.284       .  A
O870       Cu875   1.990       .  S
O870        C880   1.275       .  A
O871       Cu876   1.989       .  S
O871        C880   1.274       .  A
O872       Cu876   2.051       .  S
O872        C879   1.283       .  A
O873       Cu876   2.053       .  S
O873        C878   1.284   1_556  A
O874       Cu876   1.991       .  S
O874        C877   1.275       .  A
Cu875      Cu876   2.374       .  S
C877        C953   1.423       .  S
C878        C972   1.509       .  S
C880        C956   1.422       .  S
C881        C882   1.524       .  S
C881        C887   1.501       .  S
C881        C885   1.524       .  S
C881        C957   1.444       .  S
C882        H889   1.087       .  S
C882        C883   1.367       .  D
C883        C884   1.557       .  S
C883        C923   1.485       .  S
C884        C888   1.554       .  S
C884        C886   1.557       .  S
C884        H890   1.110       .  S
C885        H891   1.087       .  S
C885        C886   1.368       .  D
C886        C926   1.486       .  S
C887        H892   1.090       .  S
C887        C888   1.349       .  D
C888        C959   1.430       .  S
O893       Cu901   2.057       .  S
O893        C903   1.284       .  A
O894       Cu901   1.989       .  S
O894        C904   1.274       .  A
O895       Cu901   1.996       .  S
O895        C905   1.275       .  A
O896       Cu901   2.053       .  S
O896        C906   1.284       .  A
O897       Cu902   2.050       .  S
O898       Cu902   1.993       .  S
O899       Cu902   1.986       .  S
O900       Cu902   2.054       .  S
Cu901     Cu1262   2.374       .  S
C903       O1260   1.284       .  A
C903       C1399   1.509       .  S
C904       O1259   1.274       .  A
C904        C951   1.419       .  S
C905       O1258   1.275       .  A
C905        C950   1.426       .  S
C906       O1257   1.283       .  A
C906       C1278   1.507       .  S
O907       Cu915   2.001       .  S
O907        C917   1.276       .  A
O908       Cu915   2.050       .  S
O908        C918   1.284       .  A
O909       Cu915   2.055       .  S
O909        C919   1.283       .  A
O910       Cu915   1.983       .  S
O910        C920   1.273       .  A
O911       Cu916   1.986       .  S
O911       C1280   1.274       .  A
O912       Cu916   2.059       .  S
O912       C1279   1.284       .  A
O913       Cu916   2.050       .  S
O913       C1278   1.283       .  A
O914       Cu916   1.999       .  S
O914       C1277   1.276       .  A
Cu916     Cu1275   2.373       .  S
C917        C946   1.432       .  S
C920        C947   1.416       .  S
C921        C927   1.502       .  S
C921        C925   1.525       .  S
C921        C948   1.447       .  S
C922       C1281   1.524       .  S
C922        H929   1.087       .  S
C922        C923   1.368       .  D
C923       C1284   1.556       .  S
C924        C928   1.552       .  S
C924        C926   1.557       .  S
C924        H930   1.110       .  S
C925        H931   1.087       .  S
C925        C926   1.369       .  D
C927        H932   1.090       .  S
C927        C928   1.349       .  D
C928        C945   1.428       .  S
C933       C1294   1.533       .  S
C933        C939   1.507       .  S
C933        C937   1.532       .  S
C933        C949   1.454       .  S
C934        H941   1.083       .  S
C934        C935   1.377       .  D
C935        C936   1.541       .  S
C936        H942   1.098       .  S
C937        H943   1.082       .  S
C937        C938   1.377       .  D
C938       C1296   1.540       .  S
C939        H944   1.090       .  S
C939        C940   1.339       .  D
C940       C1296   1.531       .  S
C940        C952   1.421       .  S
C945       C1066   1.203       .  T
C947        C948   1.195       .  T
C950       C1069   1.201       .  T
C951        C952   1.196       .  T
C953        C954   1.199       .  T
C956       C1075   1.198       .  T
C957        C958   1.193       .  T
C959       C1080   1.205       .  T
O961       Cu969   1.982       .  S
O961        C971   1.273       .  A
O962       Cu969   2.059       .  S
O962        C972   1.284       .  A
O963       Cu969   2.047       .  S
O963        C973   1.283       .  A
O964       Cu969   2.002       .  S
O964        C974   1.276       .  A
O965       Cu970   2.003       .  S
O965        C974   1.276       .  A
O966       Cu970   2.048       .  S
O966        C973   1.283       .  A
O967       Cu970   2.057       .  S
O967        C972   1.284       .  A
O968       Cu970   1.980       .  S
O968        C971   1.273       .  A
Cu969      Cu970   2.374       .  S
C971       C1078   1.412       .  S
C973        C999   1.506   1_554  S
C974       C1080   1.434       .  S
C975        C976   1.528       .  S
C975        C981   1.506       .  S
C975        C979   1.528       .  S
C975       C1074   1.451       .  S
C976        H983   1.081       .  S
C976        C977   1.377       .  D
C977        C978   1.542       .  S
C977       C1058   1.488       .  S
C978        C982   1.536       .  S
C978        C980   1.542       .  S
C978        H984   1.101       .  S
C979        H985   1.081       .  S
C979        C980   1.377       .  D
C980       C1055   1.489       .  S
C981        H986   1.090       .  S
C981        C982   1.340       .  D
C982       C1075   1.423       .  S
O987       Cu995   1.992       .  S
O987        C997   1.275       .  A
O988       Cu995   2.055       .  S
O988        C998   1.284   1_556  A
O989       Cu995   2.052       .  S
O989        C999   1.284       .  A
O990       Cu995   1.990       .  S
O990       C1000   1.275       .  A
O991       Cu996   1.989       .  S
O991       C1000   1.274       .  A
O992       Cu996   2.051       .  S
O992        C999   1.283       .  A
O993       Cu996   2.053       .  S
O993        C998   1.284   1_556  A
O994       Cu996   1.991       .  S
O994        C997   1.275       .  A
Cu995      Cu996   2.374       .  S
C997       C1073   1.423       .  S
C1000      C1076   1.422       .  S
C1001      C1002   1.524       .  S
C1001      C1007   1.501       .  S
C1001      C1005   1.524       .  S
C1001      C1077   1.444       .  S
C1002      H1009   1.087       .  S
C1002      C1003   1.367       .  D
C1003      C1004   1.557       .  S
C1003      C1043   1.485       .  S
C1004      C1008   1.554       .  S
C1004      C1006   1.557       .  S
C1004      H1010   1.110       .  S
C1005      H1011   1.087       .  S
C1005      C1006   1.368       .  D
C1006      C1046   1.486       .  S
C1007      H1012   1.090       .  S
C1007      C1008   1.349       .  D
C1008      C1079   1.430       .  S
O1013     Cu1021   2.057       .  S
O1013      C1023   1.284       .  A
O1014     Cu1021   1.989       .  S
O1014      C1024   1.274       .  A
O1015     Cu1021   1.996       .  S
O1015      C1025   1.275       .  A
O1016     Cu1021   2.053       .  S
O1016      C1026   1.284       .  A
O1017     Cu1022   2.050       .  S
O1018     Cu1022   1.993       .  S
O1019     Cu1022   1.986       .  S
O1020     Cu1022   2.054       .  S
Cu1021    Cu1382   2.374       .  S
C1023      O1380   1.284       .  A
C1023      C1159   1.509   1_565  S
C1024      O1379   1.274       .  A
C1024      C1071   1.419       .  S
C1025      O1378   1.275       .  A
C1025      C1070   1.426       .  S
C1026      O1377   1.283       .  A
C1026      C1398   1.507       .  S
O1027     Cu1035   2.001       .  S
O1027      C1037   1.276       .  A
O1028     Cu1035   2.050       .  S
O1028      C1038   1.284       .  A
O1029     Cu1035   2.055       .  S
O1029      C1039   1.283       .  A
O1030     Cu1035   1.983       .  S
O1030      C1040   1.273       .  A
O1031     Cu1036   1.986       .  S
O1031      C1400   1.274       .  A
O1032     Cu1036   2.059       .  S
O1032      C1399   1.284       .  A
O1033     Cu1036   2.050       .  S
O1033      C1398   1.283       .  A
O1034     Cu1036   1.999       .  S
O1034      C1397   1.276       .  A
Cu1036    Cu1395   2.373       .  S
C1037      C1066   1.432       .  S
C1040      C1067   1.416       .  S
C1041      C1047   1.502       .  S
C1041      C1045   1.525       .  S
C1041      C1068   1.447       .  S
C1042      C1401   1.524       .  S
C1042      H1049   1.087       .  S
C1042      C1043   1.368       .  D
C1043      C1404   1.556       .  S
C1044      C1048   1.552       .  S
C1044      C1046   1.557       .  S
C1044      H1050   1.110       .  S
C1045      H1051   1.087       .  S
C1045      C1046   1.369       .  D
C1047      H1052   1.090       .  S
C1047      C1048   1.349       .  D
C1048      C1065   1.428       .  S
C1053      C1414   1.533       .  S
C1053      C1059   1.507       .  S
C1053      C1057   1.532       .  S
C1053      C1069   1.454       .  S
C1054      H1061   1.083       .  S
C1054      C1055   1.377       .  D
C1055      C1056   1.541       .  S
C1056      H1062   1.098       .  S
C1057      H1063   1.082       .  S
C1057      C1058   1.377       .  D
C1058      C1416   1.540       .  S
C1059      H1064   1.090       .  S
C1059      C1060   1.339       .  D
C1060      C1416   1.531       .  S
C1060      C1072   1.421       .  S
C1067      C1068   1.195       .  T
C1071      C1072   1.196       .  T
C1073      C1074   1.199       .  T
C1077      C1078   1.193       .  T
O1081     Cu1089   1.982       .  S
O1081      C1091   1.273       .  A
O1082     Cu1089   2.059       .  S
O1082      C1092   1.284       .  A
O1083     Cu1089   2.047       .  S
O1083      C1093   1.283       .  A
O1084     Cu1089   2.002       .  S
O1084      C1094   1.276       .  A
O1085     Cu1090   2.003       .  S
O1085      C1094   1.276       .  A
O1086     Cu1090   2.048       .  S
O1086      C1093   1.283       .  A
O1087     Cu1090   2.057       .  S
O1087      C1092   1.284       .  A
O1088     Cu1090   1.980       .  S
O1088      C1091   1.273       .  A
Cu1089    Cu1090   2.374       .  S
C1091      C1198   1.412       .  S
C1092      C1358   1.509   1_545  S
C1093      C1119   1.506   1_554  S
C1094      C1200   1.434       .  S
C1095      C1096   1.528       .  S
C1095      C1101   1.506       .  S
C1095      C1099   1.528       .  S
C1095      C1194   1.451       .  S
C1096      H1103   1.081       .  S
C1096      C1097   1.377       .  D
C1097      C1098   1.542       .  S
C1097      C1178   1.488       .  S
C1098      C1102   1.536       .  S
C1098      C1100   1.542       .  S
C1098      H1104   1.101       .  S
C1099      H1105   1.081       .  S
C1099      C1100   1.377       .  D
C1100      C1175   1.489       .  S
C1101      H1106   1.090       .  S
C1101      C1102   1.340       .  D
C1102      C1195   1.423       .  S
O1107     Cu1115   1.992       .  S
O1107      C1117   1.275       .  A
O1108     Cu1115   2.055       .  S
O1108      C1118   1.284   1_556  A
O1109     Cu1115   2.052       .  S
O1109      C1119   1.284       .  A
O1110     Cu1115   1.990       .  S
O1110      C1120   1.275       .  A
O1111     Cu1116   1.989       .  S
O1111      C1120   1.274       .  A
O1112     Cu1116   2.051       .  S
O1112      C1119   1.283       .  A
O1113     Cu1116   2.053       .  S
O1113      C1118   1.284   1_556  A
O1114     Cu1116   1.991       .  S
O1114      C1117   1.275       .  A
Cu1115    Cu1116   2.374       .  S
C1117      C1193   1.423       .  S
C1118      C1212   1.509       .  S
C1120      C1196   1.422       .  S
C1121      C1122   1.524       .  S
C1121      C1127   1.501       .  S
C1121      C1125   1.524       .  S
C1121      C1197   1.444       .  S
C1122      H1129   1.087       .  S
C1122      C1123   1.367       .  D
C1123      C1124   1.557       .  S
C1123      C1163   1.485       .  S
C1124      C1128   1.554       .  S
C1124      C1126   1.557       .  S
C1124      H1130   1.110       .  S
C1125      H1131   1.087       .  S
C1125      C1126   1.368       .  D
C1126      C1166   1.486       .  S
C1127      H1132   1.090       .  S
C1127      C1128   1.349       .  D
C1128      C1199   1.430       .  S
O1133     Cu1141   2.057       .  S
O1133      C1143   1.284   1_655  A
O1134     Cu1141   1.989       .  S
O1134      C1144   1.274   1_655  A
O1135     Cu1141   1.996       .  S
O1135      C1145   1.275   1_655  A
O1136     Cu1141   2.053       .  S
O1136      C1146   1.284   1_655  A
O1137     Cu1142   2.050       .  S
O1138     Cu1142   1.993       .  S
O1139     Cu1142   1.986       .  S
O1140     Cu1142   2.054       .  S
C1144      C1191   1.419   1_455  S
C1145      C1190   1.426   1_455  S
O1147     Cu1155   2.001       .  S
O1147      C1157   1.276       .  A
O1148     Cu1155   2.050       .  S
O1148      C1158   1.284       .  A
O1149     Cu1155   2.055       .  S
O1149      C1159   1.283       .  A
O1150     Cu1155   1.983       .  S
O1150      C1160   1.273       .  A
O1151     Cu1156   1.986       .  S
O1152     Cu1156   2.059       .  S
O1153     Cu1156   2.050       .  S
O1154     Cu1156   1.999       .  S
C1157      C1186   1.432       .  S
C1160      C1187   1.416       .  S
C1161      C1167   1.502       .  S
C1161      C1165   1.525       .  S
C1161      C1188   1.447       .  S
C1162      H1169   1.087       .  S
C1162      C1163   1.368       .  D
C1164      C1168   1.552       .  S
C1164      C1166   1.557       .  S
C1164      H1170   1.110       .  S
C1165      H1171   1.087       .  S
C1165      C1166   1.369       .  D
C1167      H1172   1.090       .  S
C1167      C1168   1.349       .  D
C1168      C1185   1.428       .  S
C1173      C1179   1.507   1_455  S
C1173      C1177   1.532   1_455  S
C1173      C1189   1.454   1_455  S
C1174      H1181   1.083       .  S
C1174      C1175   1.377       .  D
C1175      C1176   1.541       .  S
C1176      H1182   1.098       .  S
C1177      H1183   1.083       .  S
C1177      C1178   1.377       .  D
C1179      H1184   1.090       .  S
C1179      C1180   1.339   1_655  D
C1180      C1192   1.421   1_455  S
C1185      C1306   1.203       .  T
C1186      C1425   1.203   1_545  T
C1187      C1188   1.195       .  T
C1189      C1430   1.201   1_545  T
C1190      C1309   1.201       .  T
C1191      C1192   1.196       .  T
C1193      C1194   1.199       .  T
C1195      C1436   1.198   1_545  T
C1196      C1315   1.198       .  T
C1197      C1198   1.193       .  T
C1199      C1320   1.205       .  T
C1200      C1439   1.205   1_545  T
O1201     Cu1209   1.982       .  S
O1201      C1211   1.273       .  A
O1202     Cu1209   2.059       .  S
O1202      C1212   1.284       .  A
O1203     Cu1209   2.047       .  S
O1203      C1213   1.283       .  A
O1204     Cu1209   2.002       .  S
O1204      C1214   1.276       .  A
O1205     Cu1210   2.003       .  S
O1205      C1214   1.276       .  A
O1206     Cu1210   2.048       .  S
O1206      C1213   1.283       .  A
O1207     Cu1210   2.057       .  S
O1207      C1212   1.284       .  A
O1208     Cu1210   1.980       .  S
O1208      C1211   1.273       .  A
Cu1209    Cu1210   2.374       .  S
C1211      C1318   1.412       .  S
C1213      C1239   1.506   1_554  S
C1214      C1320   1.434       .  S
C1215      C1216   1.528       .  S
C1215      C1221   1.506       .  S
C1215      C1219   1.528       .  S
C1215      C1314   1.451       .  S
C1216      H1223   1.081       .  S
C1216      C1217   1.377       .  D
C1217      C1218   1.542       .  S
C1217      C1298   1.488       .  S
C1218      C1222   1.536       .  S
C1218      C1220   1.542       .  S
C1218      H1224   1.101       .  S
C1219      H1225   1.081       .  S
C1219      C1220   1.377       .  D
C1220      C1295   1.489       .  S
C1221      H1226   1.090       .  S
C1221      C1222   1.340       .  D
C1222      C1315   1.423       .  S
O1227     Cu1235   1.992       .  S
O1227      C1237   1.275       .  A
O1228     Cu1235   2.055       .  S
O1228      C1238   1.284   1_556  A
O1229     Cu1235   2.052       .  S
O1229      C1239   1.284       .  A
O1230     Cu1235   1.990       .  S
O1230      C1240   1.275       .  A
O1231     Cu1236   1.989       .  S
O1231      C1240   1.274       .  A
O1232     Cu1236   2.051       .  S
O1232      C1239   1.283       .  A
O1233     Cu1236   2.053       .  S
O1233      C1238   1.284   1_556  A
O1234     Cu1236   1.991       .  S
O1234      C1237   1.275       .  A
Cu1235    Cu1236   2.374       .  S
C1237      C1313   1.423       .  S
C1238      C1332   1.509       .  S
C1240      C1316   1.422       .  S
C1241      C1242   1.523       .  S
C1241      C1247   1.501       .  S
C1241      C1245   1.524       .  S
C1241      C1317   1.444       .  S
C1242      H1249   1.087       .  S
C1242      C1243   1.367       .  D
C1243      C1244   1.557       .  S
C1243      C1283   1.485       .  S
C1244      C1248   1.554       .  S
C1244      C1246   1.557       .  S
C1244      H1250   1.110       .  S
C1245      H1251   1.087       .  S
C1245      C1246   1.368       .  D
C1246      C1286   1.486       .  S
C1247      H1252   1.090       .  S
C1247      C1248   1.349       .  D
C1248      C1319   1.430       .  S
O1253     Cu1261   2.057       .  S
O1253      C1263   1.284   1_655  A
O1254     Cu1261   1.989       .  S
O1254      C1264   1.274   1_655  A
O1255     Cu1261   1.996       .  S
O1255      C1265   1.275   1_655  A
O1256     Cu1261   2.053       .  S
O1256      C1266   1.284   1_655  A
O1257     Cu1262   2.050       .  S
O1258     Cu1262   1.993       .  S
O1259     Cu1262   1.986       .  S
O1260     Cu1262   2.054       .  S
C1264      C1311   1.419   1_455  S
C1265      C1310   1.426   1_455  S
O1267     Cu1275   2.001       .  S
O1267      C1277   1.276       .  A
O1268     Cu1275   2.050       .  S
O1268      C1278   1.284       .  A
O1269     Cu1275   2.055       .  S
O1269      C1279   1.283       .  A
O1270     Cu1275   1.983       .  S
O1270      C1280   1.273       .  A
O1271     Cu1276   1.986       .  S
O1272     Cu1276   2.059       .  S
O1273     Cu1276   2.050       .  S
O1274     Cu1276   1.999       .  S
C1277      C1306   1.432       .  S
C1280      C1307   1.416       .  S
C1281      C1287   1.502       .  S
C1281      C1285   1.525       .  S
C1281      C1308   1.447       .  S
C1282      H1289   1.087       .  S
C1282      C1283   1.368       .  D
C1284      C1288   1.552       .  S
C1284      C1286   1.557       .  S
C1284      H1290   1.110       .  S
C1285      H1291   1.087       .  S
C1285      C1286   1.369       .  D
C1287      H1292   1.090       .  S
C1287      C1288   1.349       .  D
C1288      C1305   1.428       .  S
C1293      C1299   1.507   1_455  S
C1293      C1297   1.532   1_455  S
C1293      C1309   1.454   1_455  S
C1294      H1301   1.083       .  S
C1294      C1295   1.377       .  D
C1295      C1296   1.541       .  S
C1296      H1302   1.098       .  S
C1297      H1303   1.083       .  S
C1297      C1298   1.377       .  D
C1299      H1304   1.090       .  S
C1299      C1300   1.339   1_655  D
C1300      C1312   1.421   1_455  S
C1305      C1426   1.203       .  T
C1307      C1308   1.195       .  T
C1310      C1429   1.201       .  T
C1311      C1312   1.196       .  T
C1313      C1314   1.199       .  T
C1316      C1435   1.198       .  T
C1317      C1318   1.193       .  T
C1319      C1440   1.205       .  T
O1321     Cu1329   1.982       .  S
O1321      C1331   1.273       .  A
O1322     Cu1329   2.059       .  S
O1322      C1332   1.284       .  A
O1323     Cu1329   2.047       .  S
O1323      C1333   1.283       .  A
O1324     Cu1329   2.002       .  S
O1324      C1334   1.276       .  A
O1325     Cu1330   2.003       .  S
O1325      C1334   1.276       .  A
O1326     Cu1330   2.048       .  S
O1326      C1333   1.283       .  A
O1327     Cu1330   2.057       .  S
O1327      C1332   1.284       .  A
O1328     Cu1330   1.980       .  S
O1328      C1331   1.273       .  A
Cu1329    Cu1330   2.374       .  S
C1331      C1438   1.412       .  S
C1333      C1359   1.506   1_554  S
C1334      C1440   1.434       .  S
C1335      C1336   1.528       .  S
C1335      C1341   1.506       .  S
C1335      C1339   1.528       .  S
C1335      C1434   1.451       .  S
C1336      H1343   1.081       .  S
C1336      C1337   1.377       .  D
C1337      C1338   1.542       .  S
C1337      C1418   1.488       .  S
C1338      C1342   1.536       .  S
C1338      C1340   1.542       .  S
C1338      H1344   1.101       .  S
C1339      H1345   1.081       .  S
C1339      C1340   1.377       .  D
C1340      C1415   1.489       .  S
C1341      H1346   1.090       .  S
C1341      C1342   1.340       .  D
C1342      C1435   1.423       .  S
O1347     Cu1355   1.992       .  S
O1347      C1357   1.275       .  A
O1348     Cu1355   2.055       .  S
O1348      C1358   1.284   1_556  A
O1349     Cu1355   2.052       .  S
O1349      C1359   1.284       .  A
O1350     Cu1355   1.990       .  S
O1350      C1360   1.275       .  A
O1351     Cu1356   1.989       .  S
O1351      C1360   1.274       .  A
O1352     Cu1356   2.051       .  S
O1352      C1359   1.283       .  A
O1353     Cu1356   2.053       .  S
O1353      C1358   1.284   1_556  A
O1354     Cu1356   1.991       .  S
O1354      C1357   1.275       .  A
Cu1355    Cu1356   2.374       .  S
C1357      C1433   1.423       .  S
C1360      C1436   1.422       .  S
C1361      C1362   1.524       .  S
C1361      C1367   1.501       .  S
C1361      C1365   1.524       .  S
C1361      C1437   1.444       .  S
C1362      H1369   1.087       .  S
C1362      C1363   1.367       .  D
C1363      C1364   1.557       .  S
C1363      C1403   1.485       .  S
C1364      C1368   1.554       .  S
C1364      C1366   1.557       .  S
C1364      H1370   1.110       .  S
C1365      H1371   1.087       .  S
C1365      C1366   1.368       .  D
C1366      C1406   1.486       .  S
C1367      H1372   1.090       .  S
C1367      C1368   1.349       .  D
C1368      C1439   1.430       .  S
O1373     Cu1381   2.057       .  S
O1373      C1383   1.284   1_655  A
O1374     Cu1381   1.989       .  S
O1374      C1384   1.274   1_655  A
O1375     Cu1381   1.996       .  S
O1375      C1385   1.275   1_655  A
O1376     Cu1381   2.053       .  S
O1376      C1386   1.284   1_655  A
O1377     Cu1382   2.050       .  S
O1378     Cu1382   1.993       .  S
O1379     Cu1382   1.986       .  S
O1380     Cu1382   2.054       .  S
C1384      C1431   1.419   1_455  S
C1385      C1430   1.426   1_455  S
O1387     Cu1395   2.001       .  S
O1387      C1397   1.276       .  A
O1388     Cu1395   2.050       .  S
O1388      C1398   1.284       .  A
O1389     Cu1395   2.055       .  S
O1389      C1399   1.283       .  A
O1390     Cu1395   1.983       .  S
O1390      C1400   1.273       .  A
O1391     Cu1396   1.986       .  S
O1392     Cu1396   2.059       .  S
O1393     Cu1396   2.050       .  S
O1394     Cu1396   1.999       .  S
C1397      C1426   1.432       .  S
C1400      C1427   1.416       .  S
C1401      C1407   1.502       .  S
C1401      C1405   1.525       .  S
C1401      C1428   1.447       .  S
C1402      H1409   1.087       .  S
C1402      C1403   1.368       .  D
C1404      C1408   1.552       .  S
C1404      C1406   1.557       .  S
C1404      H1410   1.110       .  S
C1405      H1411   1.087       .  S
C1405      C1406   1.369       .  D
C1407      H1412   1.090       .  S
C1407      C1408   1.349       .  D
C1408      C1425   1.428       .  S
C1413      C1419   1.507   1_455  S
C1413      C1417   1.532   1_455  S
C1413      C1429   1.454   1_455  S
C1414      H1421   1.083       .  S
C1414      C1415   1.377       .  D
C1415      C1416   1.541       .  S
C1416      H1422   1.098       .  S
C1417      H1423   1.083       .  S
C1417      C1418   1.377       .  D
C1419      H1424   1.090       .  S
C1419      C1420   1.339   1_655  D
C1420      C1432   1.421   1_455  S
C1427      C1428   1.195       .  T
C1431      C1432   1.196       .  T
C1433      C1434   1.199       .  T
C1437      C1438   1.193       .  T
