geometry optimzed in LAMMPS
_audit_creation_date              2020-11-30 
_audit_creation_method            'lammps2cif' 
_symmetry_space_group_name_H-M    'P1' 
_symmetry_Int_Tables_number       1 
_symmetry_cell_setting            triclinic 
loop_ 
_symmetry_equiv_pos_as_xyz 
  x,y,z 
_cell_length_a                    35.18651621 
_cell_length_b                    35.08977032707213 
_cell_length_c                    35.04777973431074 
_cell_angle_alpha                 90.15338614833723 
_cell_angle_beta                  89.98812877207747 
_cell_angle_gamma                 89.8510474813755 
loop_ 
_atom_site_label 
_atom_site_type_symbol 
_atom_site_fract_x 
_atom_site_fract_y 
_atom_site_fract_z 
_atom_site_charge 
C1          C  0.79949586  0.77053993  0.74919348     0.80000
N2          N  0.77418423  0.79973263  0.74737256    -0.78300
C3          C  0.74564682  0.80237082  0.77322695     0.82400
N4          N  0.74278032  0.77601519  0.80133466    -0.78300
C5          C  0.76805017  0.74687831  0.80315188     0.82500
N6          N  0.79651529  0.74438650  0.77723782    -0.80000
C7          C  0.25035849  0.76928107  0.29916793     0.80000
N8          N  0.27930377  0.77192873  0.32433841    -0.78300
C9          C  0.30400096  0.80121165  0.32225951     0.82400
N10         N  0.29992713  0.82784527  0.29477231    -0.78300
C11         C  0.27109971  0.82547298  0.26929431     0.82500
N12         N  0.24642921  0.79583097  0.27117657    -0.80000
C13         C  0.76275096  0.77569471  0.31468139     0.80000
N14         N  0.78772496  0.80474173  0.31664943    -0.78300
C15         C  0.81478951  0.80880953  0.28981665     0.82400
N16         N  0.81702170  0.78359854  0.26047384    -0.78300
C17         C  0.79202079  0.75425448  0.25835499     0.82500
N18         N  0.76471535  0.75036565  0.28548650    -0.80000
C19         C  0.24746667  0.29763592  0.27354682     0.80000
N20         N  0.24433799  0.27096118  0.30125995    -0.78300
C21         C  0.27156370  0.24384176  0.30510283     0.82400
N22         N  0.30196521  0.24355558  0.28155606    -0.78300
C23         C  0.30518355  0.27015540  0.25400858     0.82500
N24         N  0.27803249  0.29732024  0.25004855    -0.80000
C25         C  0.79761730  0.32392570  0.30336962     0.80000
N26         N  0.82403033  0.29604975  0.29981575    -0.78300
C27         C  0.82130573  0.27027855  0.27108268     0.82400
N28         N  0.79194762  0.27210416  0.24621736    -0.78300
C29         C  0.76551886  0.29993860  0.24982497     0.82500
N30         N  0.76826504  0.32569127  0.27849490    -0.80000
C31         C  0.77823818  0.32388663  0.76670362     0.80000
N32         N  0.80537044  0.32573589  0.79390003    -0.78300
C33         C  0.80674927  0.29936844  0.82194057     0.82400
N34         N  0.78090259  0.27065386  0.82268963    -0.78300
C35         C  0.75352056  0.26875965  0.79544472     0.82500
N36         N  0.75236766  0.29538049  0.76743726    -0.80000
C37         C  0.25678147  0.78918663  0.75512207     0.80000
N38         N  0.26145738  0.81682909  0.78174473    -0.78300
C39         C  0.29041796  0.81452807  0.80717294     0.82400
N40         N  0.31455161  0.78427097  0.80603381    -0.78300
C41         C  0.30985515  0.75659995  0.77927167     0.82500
N42         N  0.28102920  0.75920365  0.75390934    -0.80000
O43         O  0.08716622  0.03388340  0.99347710    -0.88600
C44         C  0.98208545  0.04125426  0.94652292     0.87400
Mg45       Mg  0.10880108  0.98496985  0.02073732     1.58100
O46         O  0.99450663  0.09094663  0.03257029    -0.88300
O47         O  0.07974555  0.09430254  0.00659799    -0.75600
C48         C  0.97051478  0.93731604  0.13753515     0.92500
O49         O  0.03974154  0.96706880  0.95407986    -0.75500
O50         O  0.99791931  0.92098844  0.12028039    -0.83000
Mg51       Mg  0.06356942  0.02591467  0.93788821     1.58000
C52         C  0.91720307  0.08458431  0.11856799     0.92400
O53         O  0.08896217  0.08154870  0.91740263    -0.81200
H54         H  0.01993574  0.13253605  0.06205705    -0.06600
C55         C  0.94803381  0.98600701  0.04165040     0.87400
O56         O  0.09538992  0.01078498  0.07921146    -0.75700
O57         O  0.01296822  0.05371432  0.95776179    -0.88500
O58         O  0.91866870  0.09371326  0.08343390    -0.81300
C59         C  0.93208288  0.13821600  0.96940286     0.92500
C60         C  0.08097593  0.11667340  0.91452862     0.92400
Mg61       Mg  0.98637078  0.02609582  0.10828956     1.58000
O62         O  0.96221371  0.97200265  0.13166664    -0.81200
O63         O  0.01022188  0.08438203  0.09237472    -0.75500
O64         O  0.96613127  0.13281146  0.95848630    -0.81300
O65         O  0.11764701  0.99784533  0.91698961    -0.83000
O66         O  0.08574804  0.92157663  0.09117086    -0.81300
C67         C  0.00812192  0.10410468  0.06224096     0.86800
O68         O  0.03540500  0.99790130  0.08772590    -0.88500
O69         O  0.95956799  0.01704797  0.05383796    -0.84600
O70         O  0.96863969  0.95614647  0.04222992    -0.75600
Mg71       Mg  0.02145987  0.10957695  0.98225053     1.58000
O72         O  0.91733170  0.12026932  0.99710865    -0.83000
H73         H  0.12776455  0.06465229  0.01871565    -0.06700
O74         O  0.05395978  0.95911110  0.01453198    -0.88300
H75         H  0.02782654  0.91886920  0.98370616    -0.06600
H76         H  0.06668454  0.02366503  0.12778418    -0.06700
C77         C  0.04040398  0.94698871  0.98425235     0.86800
C78         C  0.09963817  0.06415946  0.00629688     0.87400
C79         C  0.06572954  0.01085476  0.09969433     0.87400
H80         H  0.91988340  0.98444039  0.02920402    -0.06700
O81         O  0.95259039  0.04216246  0.96745084    -0.75800
Mg82       Mg  0.02782883  0.94104858  0.06623389     1.58000
H83         H  0.98034432  0.02834588  0.91842747    -0.06700
C84         C  0.13732594  0.97172847  0.93237777     0.92400
O85         O  0.13302112  0.93483928  0.05163143    -0.83000
C86         C  0.12075447  0.91931700  0.08190153     0.92500
O87         O  0.05175803  0.13107593  0.93030204    -0.83000
Mg88       Mg  0.93872623  0.06737424  0.02661930     1.58200
O89         O  0.12996103  0.95880171  0.96535333    -0.81300
O90         O  0.93576782  0.05654831  0.13163750    -0.83000
C91         C  0.18870647  0.30045685  0.88227669     0.80000
N92         N  0.16585486  0.26950322  0.88387405    -0.78300
C93         C  0.17533219  0.23714231  0.86498168     0.82400
N94         N  0.20841375  0.23529396  0.84542549    -0.78300
C95         C  0.23163323  0.26599170  0.84435922     0.82500
N96         N  0.22179688  0.29854967  0.86276299    -0.80000
C97         C  0.89017113  0.19785705  0.30102628     0.80000
N98         N  0.86775920  0.22917482  0.30099740    -0.78300
C99         C  0.84733023  0.23823085  0.26959674     0.82400
N100        N  0.84892251  0.21569162  0.23816099    -0.78300
C101        C  0.87151756  0.18440096  0.23793397     0.82500
N102        N  0.89166103  0.17523859  0.26964782    -0.80000
C103        C  0.30261016  0.89862221  0.20159113     0.80000
N104        N  0.30123234  0.87477593  0.23175815    -0.78300
C105        C  0.27052665  0.85214568  0.23731927     0.82400
N106        N  0.24136224  0.85274766  0.21186631    -0.78300
C107        C  0.24316157  0.87609982  0.18096567     0.82500
N108        N  0.27365598  0.89905629  0.17627438    -0.80000
O109        O  0.07619755  0.58932214  0.52991031    -0.88600
C110        C  0.12288242  0.48332069  0.52111981     0.87400
Mg111      Mg  0.04936198  0.61198065  0.57941605     1.58100
O112        O  0.03519871  0.49724310  0.47604734    -0.88300
O113        O  0.06300803  0.58230387  0.46944830    -0.75600
C114        C  0.93589539  0.47604898  0.63749673     0.92500
O115        O  0.11556695  0.54047654  0.59571088    -0.75500
O116        O  0.95333882  0.50465460  0.65105424    -0.83000
Mg117      Mg  0.13157659  0.56400501  0.53681707     1.58000
C118        C  0.94976590  0.42091896  0.48762831     0.92400
O119        O  0.15301603  0.58852792  0.48021853    -0.81200
H120        H  0.00291390  0.52364508  0.43723622    -0.06600
C121        C  0.02992738  0.45187641  0.58322193     0.87400
O122        O  0.99042868  0.59800851  0.55590251    -0.75700
O123        O  0.11096239  0.51418631  0.50903639    -0.88500
O124        O  0.98409374  0.42373306  0.47669857    -0.81300
C125        C  0.09572947  0.43187448  0.42668906     0.92500
C126        C  0.15515599  0.58061247  0.44483163     0.92400
Mg127      Mg  0.96153696  0.48836237  0.54640652     1.58000
O128        O  0.94053221  0.46474195  0.60329342    -0.81200
O129        O  0.97562110  0.51192751  0.48685860    -0.75500
O130        O  0.10708907  0.46609221  0.43048838    -0.81300
O131        O  0.15462561  0.61584869  0.56707231    -0.83000
O132        O  0.98169875  0.59023591  0.64749021    -0.81300
C133        C  0.00466206  0.51105744  0.46532390     0.86800
O134        O  0.98192384  0.53867181  0.57223452    -0.88500
O135        O  0.01693993  0.46326241  0.55246910    -0.88600
O136        O  0.02958675  0.47263682  0.61306202    -0.75600
Mg137      Mg  0.08524807  0.52292912  0.45403512     1.58000
O138        O  0.06847222  0.41829725  0.44617081    -0.83000
H139        H  0.05264111  0.63097424  0.49904227    -0.06700
O140        O  0.05642331  0.55762333  0.60656131    -0.88300
H141        H  0.08784916  0.53025557  0.64542780    -0.06600
H142        H  0.94133690  0.56926761  0.54655206    -0.06700
C143        C  0.08658248  0.54286598  0.61726399     0.86800
C144        C  0.06394321  0.60229229  0.49959491     0.87400
C145        C  0.96976065  0.56859882  0.55831175     0.87400
H146        H  0.04252353  0.42369398  0.58462499    -0.06700
O147        O  0.10182881  0.45400965  0.52233632    -0.75800
Mg148      Mg  0.00607675  0.53246285  0.62788493     1.58000
H149        H  0.15161438  0.48154775  0.53206381    -0.06700
C150        C  0.13974171  0.63489797  0.59408107     0.92400
O151        O  0.01951275  0.63783606  0.63051846    -0.83000
C152        C  0.99094685  0.62531968  0.64868552     0.92500
O153        O  0.13740253  0.55239349  0.43053112    -0.83000
Mg154      Mg  0.04163869  0.44154150  0.50044745     1.58200
O155        O  0.10489497  0.63257315  0.60294687    -0.81300
O156        O  0.93791446  0.43640363  0.51807942    -0.83000
C157        C  0.76596089  0.39077744  0.37750682     0.80000
N158        N  0.79782645  0.39440455  0.39877985    -0.78300
C159        C  0.82996068  0.37568644  0.38880779     0.82400
N160        N  0.83027318  0.35286746  0.35756395    -0.78300
C161        C  0.79842775  0.34954554  0.33598207     0.82500
N162        N  0.76636161  0.36859991  0.34593054    -0.80000
C163        C  0.19050964  0.69145594  0.26430917     0.80000
N164        N  0.19169476  0.66707546  0.29422473    -0.78300
C165        C  0.21086462  0.67607352  0.32641845     0.82400
N166        N  0.22887332  0.71016781  0.32876462    -0.78300
C167        C  0.22764994  0.73474853  0.29880487     0.82500
N168        N  0.20825067  0.72541159  0.26685116    -0.80000
C169        C  0.87404627  0.80513556  0.68531545     0.80000
N170        N  0.89701208  0.77425322  0.68228950    -0.78300
C171        C  0.88814618  0.74138241  0.70035513     0.82400
N172        N  0.85608460  0.73959932  0.72194463    -0.78300
C173        C  0.83279932  0.77055670  0.72451404     0.82500
N174        N  0.84182646  0.80306012  0.70602496    -0.80000
O175        O  0.95085746  0.02581894  0.54261073    -0.88600
C176        C  0.04593448  0.96107034  0.55274807     0.87400
Mg177      Mg  0.94255903  0.06237350  0.49511141     1.58100
O178        O  0.04389932  0.04042837  0.61462237    -0.88300
O179        O  0.95513764  0.02992646  0.60500864    -0.75600
C180        C  0.10549442  0.15203625  0.47675958     0.92500
O181        O  0.00281614  0.98763624  0.47635741    -0.75500
O182        O  0.07488911  0.14573655  0.45868603    -0.83000
Mg183      Mg  0.96849380  0.96894396  0.52856324     1.58000
C184        C  0.13894813  0.10738372  0.62437863     0.92400
O185        O  0.93330558  0.94354632  0.57656922    -0.81200
H186        H  0.01911248  0.06981145  0.65688982    -0.06600
C187        C  0.10326464  0.05309830  0.51670767     0.87400
O188        O  0.96202200  0.11403695  0.53063993    -0.75700
O189        O  0.01666660  0.97691156  0.56407393    -0.88500
O190        O  0.12894380  0.07284370  0.62887922    -0.81300
C191        C  0.09068538  0.95657282  0.65091890     0.92500
C192        C  0.93943664  0.93230736  0.61042936     0.92400
Mg193      Mg  0.07350185  0.12065597  0.56106035     1.58000
O194        O  0.10911013  0.14203625  0.51131080    -0.81200
O195        O  0.04038512  0.10276634  0.61443294    -0.75500
O196        O  0.05545864  0.95483814  0.64297030    -0.81300
O197        O  0.91915290  0.95935260  0.48877137    -0.83000
O198        O  0.98800639  0.13368967  0.44376297    -0.81300
C199        C  0.03431611  0.07071740  0.63003018     0.86800
O200        O  0.02415247  0.11405873  0.52617279    -0.88500
O201        O  0.08940675  0.06327065  0.54747895    -0.88600
O202        O  0.08731740  0.06091080  0.48522990    -0.75600
Mg203      Mg  0.00673945  0.99337021  0.62198478     1.58000
O204        O  0.11030067  0.98547887  0.64164193    -0.83000
H205        H  0.91275163  0.05425350  0.57414581    -0.06700
O206        O  0.99928546  0.04976800  0.47698000    -0.88300
H207        H  0.02547313  0.02110107  0.43511290    -0.06600
H208        H  0.99560819  0.15468295  0.55438703    -0.06700
C209        C  0.00946308  0.01980923  0.46143931     0.86800
C210        C  0.93824431  0.03694219  0.57370687     0.87400
C211        C  0.99424305  0.12890767  0.53744478     0.87400
H212        H  0.12904308  0.03621144  0.51665433    -0.06700
O213        O  0.07845137  0.97524688  0.55892899    -0.75800
Mg214      Mg  0.03548159  0.09696087  0.46845233     1.58000
H215        H  0.04370638  0.93509572  0.53615933    -0.06700
C216        C  0.91019243  0.97901862  0.45968700     0.92400
O217        O  0.93355144  0.10174069  0.44585087    -0.83000
C218        C  0.95375375  0.12883901  0.43330837     0.92500
O219        O  0.96691002  0.94464068  0.63039310    -0.83000
Mg220      Mg  0.09961964  0.02627360  0.59386162     1.58200
O221        O  0.91918047  0.01400122  0.45768683    -0.81300
O222        O  0.12472920  0.12821038  0.59848015    -0.83000
C223        C  0.19060792  0.76257396  0.67859463     0.80000
N224        N  0.16901647  0.79445111  0.67582156    -0.78300
C225        C  0.17601360  0.82494633  0.69856008     0.82400
N226        N  0.20429728  0.82322385  0.72475984    -0.78300
C227        C  0.22569715  0.79120139  0.72784337     0.82500
N228        N  0.21880194  0.76100533  0.70476760    -0.80000
C229        C  0.30056582  0.17322740  0.37632958     0.80000
N230        N  0.26804562  0.16894293  0.39653476    -0.78300
C231        C  0.23627846  0.18845756  0.38635736     0.82400
N232        N  0.23752543  0.21283759  0.35658094    -0.78300
C233        C  0.26987948  0.21677512  0.33618912     0.82500
N234        N  0.30144405  0.19699659  0.34608245    -0.80000
C235        C  0.88242713  0.88301058  0.26258974     0.80000
N236        N  0.88553844  0.90329575  0.29540789    -0.78300
C237        C  0.86575757  0.89267294  0.32687118     0.82400
N238        N  0.84257006  0.86194032  0.32481995    -0.78300
C239        C  0.84008917  0.84132488  0.29206207     0.82500
N240        N  0.86011732  0.85184271  0.26102045    -0.80000
O241        O  0.49408941  0.47472753  0.03927382    -0.88600
C242        C  0.44758746  0.57909065  0.02659208     0.87400
Mg243      Mg  0.52065691  0.45732725  0.09045011     1.58100
O244        O  0.53417882  0.56337798  0.97996922    -0.88300
O245        O  0.50775725  0.47776585  0.97868245    -0.75600
C246        C  0.63550685  0.59808237  0.13546491     0.92500
O247        O  0.45336112  0.52649967  0.10280782    -0.75500
O248        O  0.61750683  0.57163502  0.15233297    -0.83000
Mg249      Mg  0.43843340  0.49902285  0.04497890     1.58000
C250        C  0.61946718  0.64022485  0.98295117     0.92400
O251        O  0.41753268  0.47067272  0.99008756    -0.81200
H252        H  0.56490284  0.53393296  0.94197304    -0.06600
C253        C  0.54145927  0.61783843  0.08202988     0.87400
O254        O  0.57959427  0.46933579  0.06600976    -0.75700
O255        O  0.45885792  0.54758588  0.01534791    -0.88500
O256        O  0.58457563  0.63799808  0.97378503    -0.81300
C257        C  0.47043825  0.62437483  0.92909452     0.92500
C258        C  0.41490339  0.47830784  0.95472811     0.92400
Mg259      Mg  0.60885806  0.57704408  0.04668131     1.58000
O260        O  0.63100961  0.60535244  0.10029396    -0.81200
O261        O  0.59373774  0.54857454  0.98989610    -0.75500
O262        O  0.46051283  0.59023693  0.93562626    -0.81300
O263        O  0.41680242  0.44785415  0.07629982    -0.83000
O264        O  0.58858686  0.48542924  0.15598927    -0.81300
C265        C  0.56418763  0.54850965  0.96919141     0.86800
O266        O  0.58819435  0.52989850  0.07717065    -0.88500
O267        O  0.55410469  0.60359876  0.05228365    -0.88600
O268        O  0.54102397  0.59956460  0.11328871    -0.75600
Mg269      Mg  0.48438930  0.53596218  0.96075584     1.58000
O270        O  0.49832697  0.63987983  0.94605133    -0.83000
H271        H  0.51820677  0.43117950  0.01128482    -0.06700
O272        O  0.51356159  0.51388671  0.11293297    -0.88300
H273        H  0.48153855  0.54192998  0.15100970    -0.06600
H274        H  0.62877665  0.49698817  0.05434478    -0.06700
C275        C  0.48294235  0.52764977  0.12359892     0.86800
C276        C  0.50667325  0.45977935  0.00995285     0.87400
C277        C  0.60032358  0.49879183  0.06594053     0.87400
H278        H  0.52945743  0.64631528  0.08117822    -0.06700
O279        O  0.46857653  0.60847890  0.02526529    -0.75800
Mg280      Mg  0.56425676  0.54126428  0.13219526     1.58000
H281        H  0.41945643  0.58145626  0.03896512    -0.06700
C282        C  0.43152677  0.43123051  0.10476758     0.92400
O283        O  0.54955753  0.43736276  0.14330123    -0.83000
C284        C  0.57849784  0.45081568  0.16001080     0.92500
O285        O  0.43295333  0.50559940  0.93954224    -0.83000
Mg286      Mg  0.52770953  0.62074835  0.00025362     1.58200
O287        O  0.46531077  0.43750168  0.11575736    -0.81300
O288        O  0.63242887  0.62550245  0.01329525    -0.83000
C289        C  0.38465693  0.37116397  0.77053201     0.80000
N290        N  0.36477072  0.33823778  0.77028150    -0.78300
C291        C  0.34796486  0.32588505  0.80275125     0.82400
N292        N  0.35112688  0.34641209  0.83543148    -0.78300
C293        C  0.37192503  0.37878389  0.83594263     0.82500
N294        N  0.38821777  0.39136457  0.80329406    -0.80000
C295        C  0.69239907  0.26899275  0.18146482     0.80000
N296        N  0.72428342  0.26965632  0.20306797    -0.78300
C297        C  0.73252316  0.30040274  0.22503475     0.82400
N298        N  0.70921986  0.33111457  0.22503882    -0.78300
C299        C  0.67779125  0.33122776  0.20297048     0.82500
N300        N  0.66926226  0.30012286  0.18163198    -0.80000
C301        C  0.80371978  0.68203683  0.87646070     0.80000
N302        N  0.77319989  0.67840196  0.89952923    -0.78300
C303        C  0.74025879  0.69638406  0.89095153     0.82400
N304        N  0.73773848  0.71791228  0.85890368    -0.78300
C305        C  0.76858441  0.72162410  0.83592453     0.82500
N306        N  0.80155436  0.70387165  0.84494480    -0.80000
O307        O  0.04700097  0.61627372  0.04659959    -0.88600
C308        C  0.05637356  0.51873401  0.10662793     0.87400
Mg309      Mg  0.99904884  0.62668339  0.01202641     1.58100
O310        O  0.11606270  0.52227402  0.02600217    -0.88300
O311        O  0.10885954  0.61124745  0.04018289    -0.75600
C312        C  0.97428011  0.46830981  0.91302945     0.92500
O313        O  0.98087216  0.56364215  0.08320818    -0.75500
O314        O  0.95680249  0.49871122  0.92184519    -0.83000
Mg315      Mg  0.03381364  0.59624474  0.10260018     1.58000
C316        C  0.12157896  0.42895178  0.95653673     0.92400
O317        O  0.08237637  0.62917119  0.12813518    -0.81200
H318        H  0.15829898  0.54648863  0.99661447    -0.06600
C319        C  0.01665486  0.46555190  0.01200291     0.87400
O320        O  0.03317422  0.60907302  0.95846096    -0.75700
O321        O  0.06819935  0.54811032  0.09149330    -0.88500
O322        O  0.12756725  0.43900391  0.99082194    -0.81300
C323        C  0.15279747  0.47191387  0.10782268     0.92500
C324        C  0.11632805  0.62252369  0.13821421     0.92400
Mg325      Mg  0.06032863  0.49665454  0.94523200     1.58000
O326        O  0.00904784  0.46362744  0.92213703    -0.81200
O327        O  0.11477538  0.52746094  0.96372694    -0.75500
O328        O  0.14701830  0.50762812  0.10916543    -0.81300
O329        O  0.99551811  0.64588535  0.11607942    -0.83000
O330        O  0.94701672  0.58716076  0.93798199    -0.81300
C331        C  0.13110208  0.53218325  0.99571477     0.86800
O332        O  0.02711597  0.54693881  0.95412630    -0.88500
O333        O  0.04737505  0.47949017  0.00239190    -0.88600
O334        O  0.98544360  0.48232563  0.00513418    -0.75600
Mg335      Mg  0.12571351  0.55786128  0.07390860     1.58000
O336        O  0.14148561  0.45215003  0.07954556    -0.83000
H337        H  0.07792952  0.65534108  0.01918993    -0.06700
O338        O  0.98083071  0.56970454  0.02125523    -0.88300
H339        H  0.93907639  0.54299872  0.04909241    -0.06600
H340        H  0.05566341  0.57736890  0.91535533    -0.06700
C341        C  0.96556272  0.55849665  0.05087363     0.86800
C342        C  0.07773696  0.62901620  0.03516979     0.87400
C343        C  0.03904178  0.57754099  0.94134893     0.87400
H344        H  0.01642183  0.43892338  0.02748923    -0.06700
O345        O  0.06061101  0.48646068  0.09095874    -0.75800
Mg346      Mg  0.96972831  0.53644056  0.97208316     1.58000
H347        H  0.04072282  0.52078613  0.13312484    -0.06700
C348        C  0.96567093  0.65508204  0.09811801     0.92400
O349        O  0.94941885  0.63804970  0.97529436    -0.83000
C350        C  0.93652874  0.62092371  0.94634981     0.92500
O351        O  0.13621777  0.59570768  0.12421691    -0.83000
Mg352      Mg  0.09392363  0.46653026  0.03872698     1.58200
O353        O  0.96256668  0.64762351  0.06263970    -0.81300
O354        O  0.09587680  0.44415872  0.93607675    -0.83000
C355        C  0.76482460  0.67970967  0.18962824     0.80000
N356        N  0.79680139  0.67665883  0.16823394    -0.78300
C357        C  0.82736955  0.69893067  0.17574604     0.82400
N358        N  0.82588519  0.72413246  0.20520578    -0.78300
C359        C  0.79385533  0.72732828  0.22659672     0.82500
N360        N  0.76336748  0.70520941  0.21863530    -0.80000
C361        C  0.17064422  0.36458670  0.29846805     0.80000
N362        N  0.19577874  0.33535648  0.30036344    -0.78300
C363        C  0.21940798  0.32809245  0.27065379     0.82400
N364        N  0.21832739  0.35049543  0.23918111    -0.78300
C365        C  0.19307384  0.37960630  0.23680757     0.82500
N366        N  0.16968131  0.38675121  0.26686688    -0.80000
C367        C  0.87500059  0.27141514  0.89635369     0.80000
N368        N  0.84518073  0.27055318  0.87194712    -0.78300
C369        C  0.83757181  0.30100941  0.84961052     0.82400
N370        N  0.86024119  0.33220613  0.85120871    -0.78300
C371        C  0.89046948  0.33312678  0.87518474     0.82500
N372        N  0.89760279  0.30262709  0.89777746    -0.80000
O373        O  0.47794995  0.03555571  0.07444323    -0.88600
C374        C  0.58477440  0.04382807  0.11905673     0.87400
Mg375      Mg  0.45717698  0.98583127  0.04738662     1.58100
O376        O  0.57134705  0.09302052  0.03332541    -0.88300
O377        O  0.48632560  0.09562089  0.06016540    -0.75600
C378        C  0.59600137  0.93701485  0.93152229     0.92500
O379        O  0.52739196  0.96944753  0.11403253    -0.75500
O380        O  0.56869602  0.92176138  0.94950096    -0.83000
Mg381      Mg  0.50338929  0.02843226  0.12964173     1.58000
C382        C  0.64754424  0.08796591  0.94567235     0.92400
O383        O  0.47777276  0.08447491  0.15067726    -0.81200
H384        H  0.54496674  0.13397628  0.00381558    -0.06600
C385        C  0.61895009  0.98893919  0.02534965     0.87400
O386        O  0.47074873  0.01065653  0.98855316    -0.75700
O387        O  0.55353886  0.05597094  0.10824484    -0.88500
O388        O  0.64661637  0.09658600  0.98101661    -0.81300
C389        C  0.63310625  0.14222686  0.09611671     0.92500
C390        C  0.48608290  0.11958589  0.15320941     0.92400
Mg391      Mg  0.57985586  0.02727380  0.95775917     1.58000
O392        O  0.60446643  0.97200334  0.93509906    -0.81200
O393        O  0.55529797  0.08561737  0.97363772    -0.75500
O394        O  0.59994414  0.13485392  0.10841307    -0.81300
O395        O  0.45102231  0.99890059  0.15250268    -0.83000
O396        O  0.48235472  0.92155352  0.97722740    -0.81300
C397        C  0.55724394  0.10567669  0.00369048     0.86800
O398        O  0.53110430  0.99898579  0.97973810    -0.88500
O399        O  0.60774380  0.01960519  0.01192427    -0.88600
O400        O  0.59809253  0.95934889  0.02609869    -0.75600
Mg401      Mg  0.54465340  0.11160681  0.08416769     1.58000
O402        O  0.64807224  0.12457538  0.06813622    -0.83000
H403        H  0.43802063  0.06652195  0.04829001    -0.06700
O404        O  0.51256970  0.96118684  0.05387635    -0.88300
H405        H  0.53846472  0.92073031  0.08458333    -0.06600
H406        H  0.49890370  0.02375347  0.93981077    -0.06700
C407        C  0.52616481  0.94905104  0.08404899     0.86800
C408        C  0.46604380  0.06579584  0.06093105     0.87400
C409        C  0.50035961  0.01123631  0.96795018     0.87400
H410        H  0.64706963  0.98756360  0.03793460    -0.06700
O411        O  0.61419423  0.04548904  0.09800803    -0.75800
Mg412      Mg  0.53919771  0.94280110  0.00251270     1.58000
H413        H  0.58696919  0.03072745  0.14693427    -0.06700
C414        C  0.43206414  0.97159256  0.13821588     0.92400
O415        O  0.43462414  0.93423107  0.01682182    -0.83000
C416        C  0.44762832  0.91804186  0.98710563     0.92500
O417        O  0.51485478  0.13349791  0.13647422    -0.83000
Mg418      Mg  0.62765521  0.07063175  0.03871363     1.58200
O419        O  0.43569010  0.96121260  0.10360043    -0.81300
O420        O  0.62981055  0.05902905  0.93292467    -0.83000
C421        C  0.68210010  0.20109662  0.75982477     0.80000
N422        N  0.67813636  0.17740060  0.78999868    -0.78300
C423        C  0.69865751  0.18286519  0.82230709     0.82400
N424        N  0.72287494  0.21297055  0.82455686    -0.78300
C425        C  0.72664293  0.23701981  0.79439225     0.82500
N426        N  0.70627331  0.23088812  0.76211097    -0.80000
C427        C  0.37974850  0.30502373  0.19039888     0.80000
N428        N  0.40283058  0.27418254  0.18767370    -0.78300
C429        C  0.39447556  0.24195020  0.20713418     0.82400
N430        N  0.36234553  0.24031655  0.22838494    -0.78300
C431        C  0.33907904  0.27113912  0.23059431     0.82500
N432        N  0.34777245  0.30337997  0.21154787    -0.80000
C433        C  0.26860977  0.89622743  0.87009830     0.80000
N434        N  0.26572098  0.86891297  0.84286361    -0.78300
C435        C  0.29478489  0.84420825  0.83618214     0.82400
N436        N  0.32711139  0.84644167  0.85725305    -0.78300
C437        C  0.33037910  0.87378622  0.88443837     0.82500
N438        N  0.30114853  0.89816323  0.89081730    -0.80000
O439        O  0.54913870  0.53000237  0.46363187    -0.88600
C440        C  0.60693170  0.51594417  0.56267824     0.87400
Mg441      Mg  0.51292938  0.57734656  0.45370671     1.58100
O442        O  0.52853847  0.45485294  0.55228304    -0.88300
O443        O  0.54510982  0.46764713  0.46420484    -0.75600
C444        C  0.40945472  0.59222560  0.61086208     0.92500
O445        O  0.58270726  0.59425818  0.52117929    -0.75500
O446        O  0.42081084  0.61286847  0.58347076    -0.83000
Mg447      Mg  0.60446055  0.54345598  0.48646077     1.58000
C448        C  0.45410312  0.44309300  0.64156314     0.92400
O449        O  0.63296479  0.49752934  0.45117348    -0.81200
H450        H  0.50064139  0.41483723  0.52289374    -0.06600
C451        C  0.51083032  0.55119903  0.61447396     0.87400
O452        O  0.46005517  0.54232230  0.46850705    -0.75700
O453        O  0.59296380  0.50600636  0.53193733    -0.88500
O454        O  0.48929903  0.43812457  0.63460775    -0.81300
C455        C  0.60986957  0.41709439  0.60248005     0.92500
C456        C  0.64309491  0.46304873  0.45482883     0.92400
Mg457      Mg  0.44580864  0.50897770  0.57740518     1.58000
O458        O  0.41897615  0.55719337  0.61304036    -0.81200
O459        O  0.46692557  0.45721625  0.54331725    -0.75500
O460        O  0.61205545  0.42597582  0.56737562    -0.81300
O461        O  0.61816146  0.58482656  0.44026654    -0.83000
O462        O  0.43957942  0.63006871  0.49621010    -0.81300
C463        C  0.49895759  0.44089219  0.53936180     0.86800
O464        O  0.45539275  0.54605247  0.53067847    -0.88500
O465        O  0.50179170  0.52098613  0.59878362    -0.88600
O466        O  0.50401866  0.58326100  0.59923562    -0.75600
Mg467      Mg  0.57767022  0.44874693  0.51758812     1.58000
O468        O  0.58055742  0.42533450  0.62225609    -0.83000
H469        H  0.52445176  0.50062708  0.42143433    -0.06700
O470        O  0.52129774  0.59477121  0.51198036    -0.88300
H471        H  0.54772483  0.63544157  0.54186686    -0.06600
H472        H  0.41658440  0.51932609  0.49870080    -0.06700
C473        C  0.55028287  0.60956027  0.52517658     0.86800
C474        C  0.53946559  0.49969896  0.44838183     0.87400
C475        C  0.44262298  0.53566632  0.49949069     0.87400
H476        H  0.52585045  0.55026745  0.64138062    -0.06700
O477        O  0.59061051  0.50887026  0.59407472    -0.75800
Mg478      Mg  0.47200339  0.60302159  0.54571755     1.58000
H479        H  0.63301619  0.53221017  0.56273193    -0.06700
C480        C  0.59824851  0.61254292  0.42837156     0.92400
O481        O  0.47435676  0.62703658  0.44301624    -0.83000
C482        C  0.44699094  0.64068430  0.46235107     0.92500
O483        O  0.62906820  0.44153185  0.48028231    -0.83000
Mg484      Mg  0.53848405  0.47357221  0.61011658     1.58200
O485        O  0.56254283  0.61352642  0.43347025    -0.81300
O486        O  0.43514937  0.46943184  0.62556442    -0.83000
C487        C  0.70031133  0.80338384  0.39346541     0.80000
N488        N  0.72686258  0.80444998  0.36575105    -0.78300
C489        C  0.73341199  0.77344113  0.34362702     0.82400
N490        N  0.71292859  0.74120294  0.34885524    -0.78300
C491        C  0.68636774  0.73991581  0.37688715     0.82500
N492        N  0.67998298  0.77125141  0.39877129    -0.80000
C493        C  0.37951137  0.68413103  0.80848182     0.80000
N494        N  0.35655721  0.71506838  0.80910022    -0.78300
C495        C  0.33500212  0.72349208  0.77823826     0.82400
N496        N  0.33635107  0.70072044  0.74676305    -0.78300
C497        C  0.35950022  0.66963704  0.74599162     0.82500
N498        N  0.38134712  0.66194402  0.77687296    -0.80000
C499        C  0.80853190  0.40039113  0.70203341     0.80000
N500        N  0.80867488  0.37436638  0.73045556    -0.78300
C501        C  0.77799181  0.35176373  0.73602028     0.82400
N502        N  0.74755495  0.35456810  0.71252900    -0.78300
C503        C  0.74727552  0.38024606  0.68365061     0.82500
N504        N  0.77785931  0.40321131  0.67878431    -0.80000
O505        O  0.53824712  0.07417085  0.58818415    -0.88600
C506        C  0.52781575  0.12131807  0.48312097     0.87400
Mg507      Mg  0.58822200  0.04795052  0.60824344     1.58100
O508        O  0.48292661  0.03311683  0.49389316    -0.88300
O509        O  0.47895583  0.05750311  0.58069324    -0.75600
C510        C  0.63964556  0.93365168  0.46875228     0.92500
O511        O  0.60204137  0.11472382  0.53789154    -0.75500
O512        O  0.65362951  0.95041989  0.49761297    -0.83000
Mg513      Mg  0.54359651  0.12951195  0.56347477     1.58000
C514        C  0.49184070  0.95029765  0.41349084     0.92400
O515        O  0.48745673  0.14865916  0.59048600    -0.81200
H516        H  0.44204781  0.00148509  0.51751362    -0.06600
C517        C  0.58787950  0.02838428  0.44624206     0.87400
O518        O  0.56367794  0.98908186  0.59347628    -0.75700
O519        O  0.51591972  0.10865709  0.51375680    -0.88500
O520        O  0.48161970  0.98502030  0.41658346    -0.81300
C521        C  0.43231815  0.09646515  0.43361099     0.92500
C522        C  0.45221651  0.14972357  0.58233206     0.92400
Mg523      Mg  0.55007120  0.96007888  0.48247616     1.58000
O524        O  0.60575082  0.93920639  0.45772614    -0.81200
O525        O  0.49102869  0.97288592  0.50649089    -0.75500
O526        O  0.43711148  0.10479191  0.46856759    -0.81300
O527        O  0.57387722  0.15256185  0.61503523    -0.83000
O528        O  0.65080534  0.97724440  0.58399165    -0.81300
C529        C  0.47052504  0.00257450  0.50592250     0.86800
O530        O  0.57627256  0.98084686  0.53294070    -0.88500
O531        O  0.55714765  0.01548371  0.45751522    -0.88600
O532        O  0.61755534  0.02796160  0.46703825    -0.75600
Mg533      Mg  0.46200005  0.08153147  0.52269746     1.58000
O534        O  0.45214144  0.07103867  0.41699836    -0.83000
H535        H  0.50893317  0.04764125  0.62906501    -0.06700
O536        O  0.61280914  0.05492256  0.55279423    -0.88300
H537        H  0.65095483  0.08666621  0.52500277    -0.06600
H538        H  0.55046399  0.94092077  0.56417141    -0.06700
C539        C  0.62330451  0.08535388  0.53846963     0.86800
C540        C  0.50878166  0.05988968  0.60077728     0.87400
C541        C  0.56326147  0.96890358  0.56337019     0.87400
H542        H  0.58936777  0.04114614  0.41812062    -0.06700
O543        O  0.52858725  0.10113072  0.45301348    -0.75800
Mg544      Mg  0.63223329  0.00361833  0.52651956     1.58000
H545        H  0.53916830  0.14997565  0.48227346    -0.06700
C546        C  0.60166534  0.13888537  0.63361479     0.92400
O547        O  0.63962287  0.01792332  0.63118143    -0.83000
C548        C  0.65364234  0.98679832  0.61895107     0.92500
O549        O  0.43856727  0.13192413  0.55396220    -0.83000
Mg550      Mg  0.50587806  0.04186578  0.43771626     1.58200
O551        O  0.61258358  0.10445771  0.62967690    -0.81300
O552        O  0.52098114  0.93739517  0.43040611    -0.83000
C553        C  0.38033259  0.76759190  0.38512404     0.80000
N554        N  0.34736821  0.76912388  0.36537232    -0.78300
C555        C  0.33775462  0.80104632  0.34592118     0.82400
N556        N  0.36084757  0.83182775  0.34658171    -0.78300
C557        C  0.39338665  0.83088415  0.36704122     0.82500
N558        N  0.40317721  0.79872451  0.38601707    -0.80000
C559        C  0.27105537  0.16899429  0.69734617     0.80000
N560        N  0.30294309  0.16707499  0.67576466    -0.78300
C561        C  0.33436757  0.18706126  0.68576271     0.82400
N562        N  0.33351005  0.21005592  0.71676195    -0.78300
C563        C  0.30160756  0.21233469  0.73825093     0.82500
N564        N  0.27033554  0.19204064  0.72839387    -0.80000
C565        C  0.67762446  0.87488178  0.80641416     0.80000
N566        N  0.67608295  0.89855497  0.77604389    -0.78300
C567        C  0.69696047  0.89126524  0.74439389     0.82400
N568        N  0.71907393  0.85947655  0.74297281    -0.78300
C569        C  0.72066829  0.83566031  0.77350402     0.82500
N570        N  0.70010272  0.84360634  0.80527569    -0.80000
C571        C  0.29969757  0.23904799  0.76989024     0.80000
N572        N  0.26955487  0.23816079  0.79380272    -0.78300
C573        C  0.26586567  0.26483365  0.82146278     0.82400
N574        N  0.29221199  0.29258576  0.82512860    -0.78300
C575        C  0.32241540  0.29355359  0.80126910     0.82500
N576        N  0.32596696  0.26703865  0.77331012    -0.80000
C577        C  0.68660232  0.97766552  0.68046042    -0.06000
C578        C  0.67167832  0.96085057  0.64721270    -0.00100
C579        C  0.66948355  0.92037832  0.64480505    -0.08700
C580        C  0.68075204  0.89867386  0.67658230    -0.06000
C581        C  0.69252662  0.91588574  0.71065478    -0.00100
C582        C  0.69655876  0.95596764  0.71255073    -0.08600
C583        C  0.71112743  0.97591994  0.74821658     0.61800
H584        H  0.68864259  0.00843448  0.68186881     0.12500
H585        H  0.67820099  0.86791622  0.67595988     0.12500
C586        C  0.65323263  0.89987882  0.61020591     0.62000
F587        F  0.71811905  0.01419077  0.74180190    -0.23100
F588        F  0.74475271  0.95914697  0.75993661    -0.20500
F589        F  0.68457434  0.97346631  0.77716403    -0.20100
F590        F  0.67543722  0.90715726  0.57851529    -0.20200
F591        F  0.61641083  0.91205002  0.60368593    -0.20500
F592        F  0.65220479  0.86075982  0.61520173    -0.23200
C593        C  0.36291399  0.19340989  0.62254443    -0.06000
C594        C  0.36806643  0.18541016  0.66130270    -0.00100
C595        C  0.40384050  0.17292778  0.67483931    -0.08700
C596        C  0.43221733  0.16448904  0.64794643    -0.06000
C597        C  0.42568880  0.16884677  0.60864737    -0.00100
C598        C  0.39167828  0.18628899  0.59587222    -0.08600
C599        C  0.38522320  0.19696541  0.55443791     0.61800
H600        H  0.33560073  0.20413941  0.61304875     0.12500
H601        H  0.45884468  0.15211511  0.65730584     0.12500
C602        C  0.41139475  0.16680113  0.71706083     0.62000
F603        F  0.35712777  0.22447591  0.55110937    -0.23100
F604        F  0.37414645  0.16526102  0.53380144    -0.20500
F605        F  0.41820922  0.21171160  0.53892491    -0.20100
F606        F  0.38520300  0.14154458  0.73195391    -0.20200
F607        F  0.40863085  0.20122161  0.73617378    -0.20500
F608        F  0.44739091  0.15215941  0.72357215    -0.23200
C609        C  0.45557826  0.86219682  0.36287588    -0.06000
C610        C  0.41677336  0.86515104  0.37131924    -0.00100
C611        C  0.40205002  0.89889589  0.38792076    -0.08700
C612        C  0.42762762  0.92759243  0.39853949    -0.06000
C613        C  0.46695078  0.92329008  0.39316567    -0.00100
C614        C  0.48110585  0.89120222  0.37292811    -0.08600
C615        C  0.52263961  0.88759671  0.36155622     0.61800
H616        H  0.46595106  0.83629749  0.34952786     0.12500
H617        H  0.41723663  0.95267044  0.41332649     0.12500
C618        C  0.35990807  0.90375289  0.39634454     0.62000
F619        F  0.52803765  0.85894445  0.33484040    -0.23100
F620        F  0.54471876  0.87911656  0.39303043    -0.20500
F621        F  0.53489641  0.92141678  0.34556327    -0.20100
F622        F  0.34701343  0.87372295  0.41830143    -0.20200
F623        F  0.33982930  0.90486074  0.36245112    -0.20500
F624        F  0.35240467  0.93717417  0.41605635    -0.23200
C625        C  0.68039700  0.87017204  0.39210815    -0.06000
C626        C  0.69025181  0.83831333  0.41404709    -0.00100
C627        C  0.68879622  0.84013619  0.45430817    -0.08700
C628        C  0.67465513  0.87345118  0.47137557    -0.06000
C629        C  0.66166328  0.90404065  0.44924177    -0.00100
C630        C  0.66572114  0.90324608  0.40909005    -0.08600
C631        C  0.65487372  0.93709232  0.38437215     0.61800
H632        H  0.68250782  0.86822249  0.36132026     0.12500
H633        H  0.67141582  0.87491721  0.50208870     0.12500
C634        C  0.70192820  0.80717312  0.47902990     0.62000
F635        F  0.66644620  0.93211963  0.34691674    -0.23100
F636        F  0.67205287  0.96967919  0.39833882    -0.20500
F637        F  0.61590375  0.94210268  0.38433371    -0.20100
F638        F  0.73783826  0.79554448  0.46780363    -0.20200
F639        F  0.67697237  0.77700576  0.47557039    -0.20500
F640        F  0.70368369  0.81735756  0.51718298    -0.23200
C641        C  0.35896134  0.66411051  0.67530144    -0.06000
C642        C  0.36355967  0.64622536  0.71080915    -0.00100
C643        C  0.37436296  0.60724534  0.71165591    -0.08700
C644        C  0.38716805  0.59005120  0.67782901    -0.06000
C645        C  0.38742516  0.60963015  0.64288257    -0.00100
C646        C  0.36953635  0.64598526  0.64100598    -0.08600
C647        C  0.36159358  0.66605635  0.60354808     0.61800
H648        H  0.34875847  0.69323992  0.67455271     0.12500
H649        H  0.39880686  0.56149034  0.67918167     0.12500
C650        C  0.37271707  0.58337429  0.74771196     0.62000
F651        F  0.33512428  0.69501844  0.60802719    -0.23100
F652        F  0.34710364  0.64047356  0.57721862    -0.20500
F653        F  0.39465088  0.68192905  0.58968880    -0.20100
F654        F  0.34027157  0.59207627  0.76831663    -0.20200
F655        F  0.40451971  0.59002134  0.76987828    -0.20500
F656        F  0.37153681  0.54482469  0.73918108    -0.23200
C657        C  0.40408603  0.66531614  0.41260722    -0.06000
C658        C  0.42496373  0.67202577  0.44591640    -0.00100
C659        C  0.42779079  0.70926974  0.46104912    -0.08700
C660        C  0.41083497  0.73922921  0.44105500    -0.06000
C661        C  0.39147277  0.73315060  0.40660797    -0.00100
C662        C  0.38643989  0.69533393  0.39275393    -0.08600
C663        C  0.36368236  0.68642373  0.35697067     0.61800
H664        H  0.40230578  0.63635009  0.40203043     0.12500
H665        H  0.41351620  0.76807770  0.45174218     0.12500
C666        C  0.45032456  0.71766069  0.49708019     0.62000
F667        F  0.36498827  0.64804240  0.34773916    -0.23100
F668        F  0.37801248  0.70655257  0.32632083    -0.20500
F669        F  0.32596984  0.69611018  0.36266870    -0.20100
F670        F  0.48758880  0.70596213  0.49239400    -0.20200
F671        F  0.43452523  0.69851027  0.52750372    -0.20500
F672        F  0.45045452  0.75612903  0.50597185    -0.23200
C673        C  0.62554703  0.71186827  0.39507085    -0.06000
C674        C  0.66324997  0.70564230  0.38369527    -0.00100
C675        C  0.67834705  0.66820097  0.38360737    -0.08700
C676        C  0.65482323  0.63832028  0.39568898    -0.06000
C677        C  0.61783834  0.64487942  0.40969098    -0.00100
C678        C  0.60275584  0.68254107  0.40930037    -0.08600
C679        C  0.56397050  0.69286133  0.42574136     0.61800
H680        H  0.61453415  0.74070463  0.39432443     0.12500
H681        H  0.66590413  0.60951706  0.39575511     0.12500
C682        C  0.71948709  0.65980255  0.37310972     0.62000
F683        F  0.55709423  0.73172876  0.42492956    -0.23100
F684        F  0.56195573  0.68152061  0.46346894    -0.20500
F685        F  0.53564161  0.67537598  0.40475969    -0.20100
F686        F  0.74354613  0.68213383  0.39491580    -0.20200
F687        F  0.72535019  0.66726578  0.33484721    -0.20500
F688        F  0.72909045  0.62206115  0.37952430    -0.23200
C689        C  0.67951603  0.40731196  0.60339044    -0.06000
C690        C  0.64414436  0.40011608  0.62072422    -0.00100
C691        C  0.64340038  0.37977807  0.65557275    -0.08700
C692        C  0.67784101  0.37312972  0.67469306    -0.06000
C693        C  0.71300618  0.38416505  0.65920961    -0.00100
C694        C  0.71406430  0.39874618  0.62148917    -0.08600
C695        C  0.75095882  0.40507519  0.59979232     0.61800
H696        H  0.68022286  0.42143126  0.57597056     0.12500
H697        H  0.67713816  0.36040302  0.70279027     0.12500
C698        C  0.60685208  0.36527602  0.67304768     0.62000
F699        F  0.74457352  0.40931134  0.56104052    -0.23100
F700        F  0.77487134  0.37404445  0.60438544    -0.20500
F701        F  0.76869009  0.43772330  0.61281758    -0.20100
F702        F  0.58412715  0.34918625  0.64511141    -0.20200
F703        F  0.58796805  0.39512310  0.69052726    -0.20500
F704        F  0.61377306  0.33753056  0.70023234    -0.23200
C705        C  0.62283918  0.19556975  0.72288974    -0.06000
C706        C  0.66250074  0.19228974  0.72393164    -0.00100
C707        C  0.68237130  0.17684231  0.69240447    -0.08700
C708        C  0.66131767  0.16143300  0.66212280    -0.06000
C709        C  0.62148458  0.16258610  0.66200111    -0.00100
C710        C  0.60177850  0.18175722  0.69171674    -0.08600
C711        C  0.55881333  0.18634435  0.69125589     0.61800
H712        H  0.60849094  0.20822278  0.74718592     0.12500
H713        H  0.67576064  0.14730146  0.63870383     0.12500
C714        C  0.72549866  0.17550026  0.69145433     0.62000
F715        F  0.54553601  0.20441052  0.72380825    -0.23100
F716        F  0.54155287  0.15103793  0.68890111    -0.20500
F717        F  0.54821870  0.20816363  0.66018952    -0.20100
F718        F  0.73904396  0.15521708  0.72240375    -0.20200
F719        F  0.73969483  0.21219564  0.69273464    -0.20500
F720        F  0.73901775  0.15826876  0.65854538    -0.23200
C721        C  0.42752200  0.89972489  0.92194910    -0.06000
C722        C  0.42087926  0.89762480  0.96150958    -0.00100
C723        C  0.38690264  0.88037608  0.97486203    -0.08700
C724        C  0.35881033  0.87056851  0.94817821    -0.06000
C725        C  0.36412163  0.87630292  0.90902586    -0.00100
C726        C  0.39945548  0.88942481  0.89530392    -0.08600
C727        C  0.40639735  0.89491257  0.85293728     0.61800
H728        H  0.45383483  0.91215194  0.91197029     0.12500
H729        H  0.33156685  0.85999731  0.95791447     0.12500
C730        C  0.37950802  0.87288370  0.01688371     0.62000
F731        F  0.44272071  0.90809429  0.84561063    -0.23100
F732        F  0.38070031  0.92108714  0.83855086    -0.20500
F733        F  0.40199049  0.86056075  0.83405808    -0.20100
F734        F  0.36869203  0.90626023  0.03496455    -0.20200
F735        F  0.41191152  0.85847148  0.03399267    -0.20500
F736        F  0.35076262  0.84645990  0.02184140    -0.23200
C737        C  0.67651628  0.89724004  0.87274860    -0.06000
C738        C  0.65622965  0.88427517  0.84091883    -0.00100
C739        C  0.61613741  0.88291922  0.84164104    -0.08700
C740        C  0.59716248  0.89802095  0.87345259    -0.06000
C741        C  0.61741286  0.91448455  0.90366826    -0.00100
C742        C  0.65757847  0.91256466  0.90450953    -0.08600
C743        C  0.68012705  0.92648982  0.93877757     0.61800
H744        H  0.70729593  0.89703585  0.87171479     0.12500
H745        H  0.56638923  0.89924279  0.87387633     0.12500
C746        C  0.59375340  0.86612741  0.80867311     0.62000
F747        F  0.71807533  0.91631571  0.93617064    -0.23100
F748        F  0.66555745  0.91057582  0.97175396    -0.20500
F749        F  0.67810597  0.96575029  0.94145687    -0.20100
F750        F  0.60718085  0.82992417  0.80048128    -0.20200
F751        F  0.59767427  0.88885448  0.77676715    -0.20500
F752        F  0.55542800  0.86336480  0.81712790    -0.23200
C753        C  0.68629876  0.17398779  0.89117141    -0.06000
C754        C  0.69279265  0.15734753  0.85536348    -0.00100
C755        C  0.69133825  0.11718663  0.85155272    -0.08700
C756        C  0.67871394  0.09551395  0.88271138    -0.06000
C757        C  0.66825170  0.11241514  0.91766210    -0.00100
C758        C  0.67433963  0.15226143  0.92273611    -0.08600
C759        C  0.66703526  0.17242105  0.96044280     0.61800
H760        H  0.68885763  0.20464569  0.89369437     0.12500
H761        H  0.67565974  0.06497739  0.87939079     0.12500
C762        C  0.70356209  0.09702561  0.81507982     0.62000
F763        F  0.67519949  0.21096197  0.95858813    -0.23100
F764        F  0.68987044  0.15679133  0.98849484    -0.20500
F765        F  0.62921139  0.16876353  0.97044972    -0.20100
F766        F  0.73805777  0.11137136  0.80284289    -0.20200
F767        F  0.67659681  0.10214568  0.78688468    -0.20500
F768        F  0.70804223  0.05821430  0.82062445    -0.23200
C769        C  0.47803528  0.17545503  0.19516887    -0.06000
C770        C  0.46090987  0.14583849  0.17438044    -0.00100
C771        C  0.42078275  0.14534284  0.16979382    -0.08700
C772        C  0.39969741  0.17649747  0.18346480    -0.06000
C773        C  0.41743496  0.20758643  0.20096225    -0.00100
C774        C  0.45674538  0.20644269  0.20890997    -0.08600
C775        C  0.47590621  0.23770949  0.23183712     0.61800
H776        H  0.50857961  0.17496453  0.19910393     0.12500
H777        H  0.36932788  0.17796001  0.17854680     0.12500
C778        C  0.40037696  0.11364584  0.14846462     0.62000
F779        F  0.51284593  0.22802030  0.24144781    -0.23100
F780        F  0.45592512  0.24397886  0.26528910    -0.20500
F781        F  0.47690906  0.27104597  0.21096348    -0.20100
F782        F  0.40557727  0.07944324  0.16727608    -0.20200
F783        F  0.41443268  0.11081582  0.11175271    -0.20500
F784        F  0.36164576  0.12020473  0.14591934    -0.23200
C785        C  0.89537498  0.40329263  0.87647913    -0.06000
C786        C  0.91397970  0.36792359  0.87808495    -0.00100
C787        C  0.95389593  0.36684815  0.88307198    -0.08700
C788        C  0.97281512  0.40091660  0.89181762    -0.06000
C789        C  0.95347363  0.43602043  0.89480030    -0.00100
C790        C  0.91445763  0.43766348  0.88400988    -0.08600
C791        C  0.89225812  0.47479800  0.88101209     0.61800
H792        H  0.86507560  0.40372552  0.87107195     0.12500
H793        H  0.00288822  0.39973911  0.89817512     0.12500
C794        C  0.97681940  0.33029283  0.87872659     0.62000
F795        F  0.85798840  0.46976879  0.86224580    -0.23100
F796        F  0.91292734  0.50127300  0.86051450    -0.20500
F797        F  0.88441829  0.48887955  0.91706709    -0.20100
F798        F  0.96576051  0.31121561  0.84597427    -0.20200
F799        F  0.97142176  0.30709432  0.91004452    -0.20500
F800        F  0.01536935  0.33758835  0.87572030    -0.23200
C801        C  0.89982804  0.68095380  0.09722296    -0.06000
C802        C  0.93260395  0.67249016  0.11882302    -0.00100
C803        C  0.93107895  0.67741962  0.15929656    -0.08700
C804        C  0.89635771  0.68798855  0.17618692    -0.06000
C805        C  0.86327143  0.69303632  0.15467168    -0.00100
C806        C  0.86507811  0.69088079  0.11442996    -0.08600
C807        C  0.83058494  0.69895772  0.08962693     0.61800
H808        H  0.90092429  0.67805805  0.06650213     0.12500
H809        H  0.89417904  0.69038397  0.20692014     0.12500
C810        C  0.96484322  0.67020839  0.18538259     0.62000
F811        F  0.84036479  0.70270497  0.05155189    -0.23100
F812        F  0.81339349  0.73258342  0.10113176    -0.20500
F813        F  0.80487593  0.66939255  0.09256308    -0.20100
F814        F  0.99537925  0.69215167  0.17393392    -0.20200
F815        F  0.97432358  0.63193834  0.18440650    -0.20500
F816        F  0.95708954  0.67959892  0.22299962    -0.23200
C817        C  0.18523638  0.41513319  0.13439133    -0.06000
C818        C  0.17094471  0.45210657  0.14069941    -0.00100
C819        C  0.17032178  0.46685735  0.17861894    -0.08700
C820        C  0.18053749  0.44254858  0.20867456    -0.06000
C821        C  0.19092333  0.40438993  0.20257552    -0.00100
C822        C  0.19529105  0.39080613  0.16461473    -0.08600
C823        C  0.20865039  0.35051823  0.15561143     0.61800
H824        H  0.18696065  0.40472900  0.10533401     0.12500
H825        H  0.17891859  0.45282270  0.23779053     0.12500
C826        C  0.15721246  0.50715615  0.18827790     0.62000
F827        F  0.20865736  0.34307485  0.11678878    -0.23100
F828        F  0.18484928  0.32436271  0.17280062    -0.20500
F829        F  0.24542390  0.34546845  0.16863018    -0.20100
F830        F  0.11971287  0.51198516  0.17745398    -0.20200
F831        F  0.17994805  0.53336485  0.16976011    -0.20500
F832        F  0.15944604  0.51488201  0.22698033    -0.23200
C833        C  0.86395663  0.69181312  0.90853288    -0.06000
C834        C  0.84020702  0.66700953  0.88864040    -0.00100
C835        C  0.85023321  0.62856054  0.88339139    -0.08700
C836        C  0.88357558  0.61527491  0.90064006    -0.06000
C837        C  0.90630928  0.63927401  0.92344935    -0.00100
C838        C  0.89710908  0.67880931  0.92634269    -0.08600
C839        C  0.92080358  0.70743099  0.94871905     0.61800
H840        H  0.85513494  0.72128874  0.91160413     0.12500
H841        H  0.89089569  0.58540386  0.89793499     0.12500
C842        C  0.82538504  0.60188053  0.86018495     0.62000
F843        F  0.90983312  0.74462874  0.94135440    -0.23100
F844        F  0.95870641  0.70403811  0.93874716    -0.20500
F845        F  0.91645408  0.70136125  0.98746320    -0.20100
F846        F  0.82178783  0.61576785  0.82346282    -0.20200
F847        F  0.78974659  0.59941907  0.87662438    -0.20500
F848        F  0.84057383  0.56549083  0.85809578    -0.23200
C849        C  0.65596471  0.24186495  0.12787464    -0.06000
C850        C  0.68236834  0.23537437  0.15731873    -0.00100
C851        C  0.69628000  0.19750504  0.16324364    -0.08700
C852        C  0.68089864  0.16766092  0.14108499    -0.06000
C853        C  0.65286669  0.17453145  0.11369485    -0.00100
C854        C  0.64080912  0.21211677  0.10612456    -0.08600
C855        C  0.61180284  0.22067894  0.07513551     0.61800
H856        H  0.64639880  0.27065165  0.12232824     0.12500
H857        H  0.68956214  0.13841726  0.14585524     0.12500
C858        C  0.72615235  0.18776774  0.19308463     0.62000
F859        F  0.60567345  0.25942188  0.07083323    -0.23100
F860        F  0.57737006  0.20396756  0.08393171    -0.20500
F861        F  0.62472143  0.20639845  0.04071143    -0.20100
F862        F  0.71350278  0.19845216  0.22893327    -0.20200
F863        F  0.75981093  0.20624138  0.18471489    -0.20500
F864        F  0.73397485  0.14908756  0.19415420    -0.23200
C865        C  0.43103947  0.36921044  0.71814219    -0.06000
C866        C  0.39945758  0.38672598  0.73491281    -0.00100
C867        C  0.38282369  0.41911363  0.71800644    -0.08700
C868        C  0.40088864  0.43538888  0.68654909    -0.06000
C869        C  0.43462090  0.42000403  0.67117233    -0.00100
C870        C  0.44896608  0.38508984  0.68605996    -0.08600
C871        C  0.48302764  0.36466848  0.66902636     0.61800
H872        H  0.44235208  0.34367824  0.73129732     0.12500
H873        H  0.38928084  0.46142479  0.67480720     0.12500
C874        C  0.34608383  0.43636213  0.73307006     0.62000
F875        F  0.48754908  0.32842612  0.68393100    -0.23100
F876        F  0.51554635  0.38501889  0.67699175    -0.20500
F877        F  0.47864180  0.36108768  0.62995631    -0.20100
F878        F  0.35203870  0.45188472  0.76879150    -0.20200
F879        F  0.31849692  0.40844881  0.73543519    -0.20500
F880        F  0.33244875  0.46495239  0.70956160    -0.23200
C881        C  0.69772642  0.67804254  0.17087057    -0.06000
C882        C  0.73080653  0.65762139  0.17985023    -0.00100
C883        C  0.73066013  0.61730652  0.17905484    -0.08700
C884        C  0.69737245  0.59864181  0.16736064    -0.06000
C885        C  0.66526198  0.61920125  0.15563861    -0.00100
C886        C  0.66486003  0.65944628  0.15806528    -0.08600
C887        C  0.63003400  0.68255470  0.14694973     0.61800
H888        H  0.69845229  0.70888516  0.17227929     0.12500
H889        H  0.69694448  0.56784794  0.16499282     0.12500
C890        C  0.76542258  0.59418233  0.19021899     0.62000
F891        F  0.63407532  0.72070398  0.15626666    -0.23100
F892        F  0.59846861  0.66879588  0.16592407    -0.20500
F893        F  0.62404051  0.68004000  0.10804775    -0.20100
F894        F  0.77810238  0.60559803  0.22580396    -0.20200
F895        F  0.79401102  0.59946593  0.16371387    -0.20500
F896        F  0.75754435  0.55557950  0.19186111    -0.23200
C897        C  0.67836089  0.66632085  0.89662468    -0.06000
C898        C  0.70655542  0.68836801  0.91386440    -0.00100
C899        C  0.70444435  0.69734371  0.95316931    -0.08700
C900        C  0.67361165  0.68335104  0.97417875    -0.06000
C901        C  0.64645344  0.65937004  0.95743747    -0.00100
C902        C  0.64897077  0.65021436  0.91807109    -0.08600
C903        C  0.62317690  0.62094297  0.89952471     0.61800
H904        H  0.68134739  0.65933434  0.86652178     0.12500
H905        H  0.67151515  0.68941151  0.00454884     0.12500
C906        C  0.73497836  0.72068240  0.97292868     0.62000
F907        F  0.63260993  0.61432991  0.86171803    -0.23100
F908        F  0.58611332  0.63359709  0.90060314    -0.20500
F909        F  0.62607799  0.58672156  0.91877983    -0.20100
F910        F  0.74083663  0.75425801  0.95324458    -0.20200
F911        F  0.76857452  0.70021191  0.97419137    -0.20500
F912        F  0.72492086  0.72987717  0.01004325    -0.23200
C913        C  0.41050691  0.40435320  0.16518358    -0.06000
C914        C  0.41050813  0.40191964  0.12527317    -0.00100
C915        C  0.39786503  0.36836522  0.10671958    -0.08700
C916        C  0.38696765  0.33741256  0.12933081    -0.06000
C917        C  0.38847687  0.33947713  0.16915039    -0.00100
C918        C  0.39958579  0.37342061  0.18770931    -0.08600
C919        C  0.40154163  0.37631146  0.23090987     0.61800
H920        H  0.42074790  0.43025856  0.17851512     0.12500
H921        H  0.37799307  0.31095358  0.11616871     0.12500
C922        C  0.39770059  0.36451441  0.06350686     0.62000
F923        F  0.41648531  0.41083526  0.24278270    -0.23100
F924        F  0.42438200  0.34754428  0.24519031    -0.20500
F925        F  0.36544657  0.37300076  0.24609987    -0.20100
F926        F  0.43379556  0.37076950  0.04921304    -0.20200
F927        F  0.37280853  0.39082030  0.04804792    -0.20500
F928        F  0.38629012  0.32857751  0.05185016    -0.23200
C929        C  0.64274011  0.42928421  0.17668172    -0.06000
C930        C  0.60340041  0.42423245  0.18089643    -0.00100
C931        C  0.58942760  0.39101987  0.19910093    -0.08700
C932        C  0.61521617  0.36183315  0.20800215    -0.06000
C933        C  0.65404283  0.36548576  0.20016009    -0.00100
C934        C  0.66853424  0.40016183  0.18570571    -0.08600
C935        C  0.71056080  0.40540044  0.17710265     0.61800
H936        H  0.65298213  0.45507565  0.16331406     0.12500
H937        H  0.60495375  0.33516229  0.21957715     0.12500
C938        C  0.54757341  0.38554628  0.20815979     0.62000
F939        F  0.71790351  0.44031337  0.16035668    -0.23100
F940        F  0.72285077  0.37720590  0.15229930    -0.20500
F941        F  0.73128158  0.40347764  0.21054978    -0.20100
F942        F  0.52820124  0.37437412  0.17570036    -0.20200
F943        F  0.53209786  0.41915153  0.22198010    -0.20500
F944        F  0.54244248  0.35781087  0.23570405    -0.23200
C945        C  0.44138466  0.67738271  0.83966402    -0.06000
C946        C  0.40188668  0.67385373  0.84202622    -0.00100
C947        C  0.38486231  0.65710825  0.87435152    -0.08700
C948        C  0.40852779  0.64330480  0.90335815    -0.06000
C949        C  0.44824271  0.64562051  0.90061725    -0.00100
C950        C  0.46515468  0.66333962  0.86855613    -0.08600
C951        C  0.50787694  0.66476788  0.86338057     0.61800
H952        H  0.45344182  0.68999503  0.81422076     0.12500
H953        H  0.39623304  0.62942251  0.92801274     0.12500
C954        C  0.34206526  0.65255430  0.87738347     0.62000
F955        F  0.51810496  0.68188750  0.82935671    -0.23100
F956        F  0.52215465  0.62802657  0.86321140    -0.20500
F957        F  0.52413738  0.68544072  0.89274705    -0.20100
F958        F  0.32860460  0.63217452  0.84638783    -0.20200
F959        F  0.32498820  0.68807296  0.87810875    -0.20500
F960        F  0.33163161  0.63333727  0.91019661    -0.23200
C961        C  0.39834031  0.41350100  0.93462842    -0.06000
C962        C  0.39305570  0.45287499  0.92970834    -0.00100
C963        C  0.37392162  0.46650613  0.89694886    -0.08700
C964        C  0.36616337  0.44080404  0.86748262    -0.06000
C965        C  0.37496067  0.40200398  0.87069832    -0.00100
C966        C  0.38950903  0.38750009  0.90542101    -0.08600
C967        C  0.39811478  0.34539741  0.91069347     0.61800
H968        H  0.41233914  0.40353809  0.96027672     0.12500
H969        H  0.35353804  0.45131588  0.84134545     0.12500
C970        C  0.36168630  0.50764765  0.89137144     0.62000
F971        F  0.41472889  0.33806803  0.94574041    -0.23100
F972        F  0.42282876  0.33300502  0.88254579    -0.20500
F973        F  0.36478639  0.32471931  0.90864758    -0.20100
F974        F  0.38415814  0.52426573  0.86366864    -0.20200
F975        F  0.36394748  0.52896981  0.92452560    -0.20500
F976        F  0.32422129  0.50862437  0.87938780    -0.23200
C977        C  0.34453244  0.11878896  0.37427013    -0.06000
C978        C  0.33553528  0.15478407  0.38898150    -0.00100
C979        C  0.35961725  0.17265446  0.41564559    -0.08700
C980        C  0.39273674  0.15362720  0.42676698    -0.06000
C981        C  0.40134722  0.11668727  0.41356421    -0.00100
C982        C  0.37691187  0.09878085  0.38669304    -0.08600
C983        C  0.38352502  0.05828951  0.37266717     0.61800
H984        H  0.32527039  0.10608305  0.35379618     0.12500
H985        H  0.41151961  0.16698364  0.44727645     0.12500
C986        C  0.34967411  0.21113946  0.43304126     0.62000
F987        F  0.35461626  0.04597538  0.34887445    -0.23100
F988        F  0.38519138  0.03366370  0.40339716    -0.20500
F989        F  0.41718302  0.05639857  0.35237850    -0.20100
F990        F  0.31506495  0.20888516  0.45161199    -0.20200
F991        F  0.34737358  0.23833554  0.40466207    -0.20500
F992        F  0.37657469  0.22295816  0.45932957    -0.23200
C993        C  0.87282715  0.95431312  0.35993569    -0.06000
C994        C  0.87021882  0.91455176  0.36279882    -0.00100
C995        C  0.87550389  0.89692947  0.39874086    -0.08700
C996        C  0.88538092  0.91987829  0.43007654    -0.06000
C997        C  0.89149394  0.95942205  0.42669134    -0.00100
C998        C  0.88335736  0.97734801  0.39110004    -0.08600
C999        C  0.88659529  0.02014594  0.38487608     0.61800
H1000       H  0.86793821  0.96713329  0.33228687     0.12500
H1001       H  0.89028384  0.90639416  0.45734965     0.12500
C1002       C  0.87330327  0.85393994  0.40388691     0.62000
F1003       F  0.87304301  0.03100338  0.34941862    -0.23100
F1004       F  0.92426202  0.03114473  0.38698786    -0.20500
F1005       F  0.86544617  0.03942752  0.41207103    -0.20100
F1006       F  0.89798818  0.83606031  0.37880977    -0.20200
F1007       F  0.83661644  0.84157860  0.39723557    -0.20500
F1008       F  0.88318341  0.84286767  0.44047049    -0.23200
C1009       C  0.15062475  0.92568155  0.67108761    -0.06000
C1010       C  0.11063441  0.92362080  0.66899394    -0.00100
C1011       C  0.09223216  0.88952625  0.68110760    -0.08700
C1012       C  0.11492240  0.85847086  0.69243037    -0.06000
C1013       C  0.15465104  0.86039759  0.69238387    -0.00100
C1014       C  0.17302899  0.89454819  0.68205581    -0.08600
C1015       C  0.21614589  0.89761817  0.68058364     0.61800
H1016       H  0.16474892  0.95164472  0.66259727     0.12500
H1017       H  0.10184114  0.83172541  0.70036201     0.12500
C1018       C  0.04923082  0.88497316  0.68182296     0.62000
F1019       F  0.22795021  0.93185082  0.66507271    -0.23100
F1020       F  0.23106454  0.86856980  0.65833275    -0.20500
F1021       F  0.23082434  0.89515733  0.71707028    -0.20100
F1022       F  0.03833043  0.85100724  0.69857772    -0.20200
F1023       F  0.03299954  0.91428653  0.70273143    -0.20500
F1024       F  0.03504459  0.88511898  0.64501783    -0.23200
C1025       C  0.20406687  0.17455661  0.67861459    -0.06000
C1026       C  0.23582815  0.15096095  0.68386494    -0.00100
C1027       C  0.23377807  0.11186194  0.67426627    -0.08700
C1028       C  0.20057987  0.09831277  0.65667223    -0.06000
C1029       C  0.16995349  0.12271231  0.64829533    -0.00100
C1030       C  0.17093322  0.16113346  0.66087998    -0.08600
C1031       C  0.13770725  0.18824320  0.65522153     0.61800
H1032       H  0.20612566  0.20430171  0.68671639     0.12500
H1033       H  0.19914338  0.06883575  0.64755302     0.12500
C1034       C  0.26626729  0.08458419  0.68276878     0.62000
F1035       F  0.14105720  0.22039330  0.67795559    -0.23100
F1036       F  0.10396487  0.17046787  0.66474085    -0.20500
F1037       F  0.13632964  0.19984327  0.61758155    -0.20100
F1038       F  0.27707558  0.08824541  0.72055328    -0.20200
F1039       F  0.29695268  0.09250911  0.65951637    -0.20500
F1040       F  0.25595111  0.04701209  0.67661969    -0.23200
C1041       C  0.20495077  0.18453721  0.44857806    -0.06000
C1042       C  0.20133901  0.18436303  0.40881598    -0.00100
C1043       C  0.16543136  0.17829093  0.39178450    -0.08700
C1044       C  0.13443157  0.17101701  0.41566369    -0.06000
C1045       C  0.13831529  0.16814760  0.45557857    -0.00100
C1046       C  0.17414199  0.17648922  0.47260893    -0.08600
C1047       C  0.18089792  0.17621718  0.51550493     0.61800
H1048       H  0.23276631  0.18990135  0.46068158     0.12500
H1049       H  0.10704738  0.16558018  0.40275747     0.12500
C1050       C  0.15999547  0.17699415  0.34869382     0.62000
F1051       F  0.21625079  0.19068850  0.52500599    -0.23100
F1052       F  0.17926522  0.13928022  0.52908584    -0.20500
F1053       F  0.15388082  0.19854520  0.53360075    -0.20100
F1054       F  0.18522569  0.15121593  0.33267342    -0.20200
F1055       F  0.16600283  0.21271602  0.33333762    -0.20500
F1056       F  0.12362949  0.16578101  0.33864404    -0.23200
C1057       C  0.90474353  0.90596458  0.66505418    -0.06000
C1058       C  0.91545256  0.90231932  0.62666796    -0.00100
C1059       C  0.90810867  0.86798811  0.60655391    -0.08700
C1060       C  0.89273875  0.83733984  0.62674626    -0.06000
C1061       C  0.88417025  0.84032210  0.66559071    -0.00100
C1062       C  0.88873270  0.87540564  0.68504572    -0.08600
C1063       C  0.87867114  0.88004505  0.72699141     0.61800
H1064       H  0.91033000  0.93265893  0.67958871     0.12500
H1065       H  0.88822384  0.81021495  0.61262015     0.12500
C1066       C  0.91811718  0.86282095  0.56463050     0.62000
F1067       F  0.88836475  0.91573916  0.74076297    -0.23100
F1068       F  0.89783878  0.85311651  0.74844766    -0.20500
F1069       F  0.83995192  0.87555417  0.73193445    -0.20100
F1070       F  0.95633521  0.87001345  0.55892126    -0.20200
F1071       F  0.89661360  0.88754397  0.54277094    -0.20500
F1072       F  0.91086235  0.82614941  0.55194066    -0.23200
C1073       C  0.13564791  0.66000963  0.23632038    -0.06000
C1074       C  0.16910764  0.68058101  0.23007986    -0.00100
C1075       C  0.18245528  0.68656292  0.19231652    -0.08700
C1076       C  0.16400536  0.66737785  0.16244150    -0.06000
C1077       C  0.13198076  0.64495345  0.16937526    -0.00100
C1078       C  0.11639391  0.64236541  0.20642120    -0.08600
C1079       C  0.08042239  0.61994627  0.21463330     0.61800
H1080       H  0.12516113  0.65706198  0.26523617     0.12500
H1081       H  0.17446387  0.66946767  0.13343910     0.12500
C1082       C  0.21587454  0.71237316  0.18336982     0.62000
F1083       F  0.07107765  0.62038627  0.25301048    -0.23100
F1084       F  0.08511463  0.58241281  0.20346776    -0.20500
F1085       F  0.05040183  0.63576922  0.19488900    -0.20100
F1086       F  0.24793003  0.70014168  0.20264374    -0.20200
F1087       F  0.20719514  0.74934752  0.19413466    -0.20500
F1088       F  0.22424352  0.71274918  0.14476313    -0.23200
C1089       C  0.66855304  0.40912337  0.41809121    -0.06000
C1090       C  0.67241619  0.44735387  0.42924780    -0.00100
C1091       C  0.70540378  0.46812136  0.41870373    -0.08700
C1092       C  0.73422200  0.44883833  0.39890866    -0.06000
C1093       C  0.73123648  0.41008045  0.39002844    -0.00100
C1094       C  0.69765572  0.38984085  0.39870476    -0.08600
C1095       C  0.69331122  0.34773012  0.38950242     0.61800
H1096       H  0.64287722  0.39406699  0.42587797     0.12500
H1097       H  0.76033433  0.46342119  0.39164700     0.12500
C1098       C  0.71169526  0.50948150  0.43021905     0.62000
F1099       F  0.65965582  0.33308177  0.40366512    -0.23100
F1100       F  0.72295392  0.32727506  0.40545523    -0.20500
F1101       F  0.69334645  0.34251592  0.35038538    -0.20100
F1102       F  0.70890981  0.51315069  0.46943043    -0.20200
F1103       F  0.68495704  0.53254795  0.41283312    -0.20500
F1104       F  0.74725001  0.52247357  0.41945249    -0.23200
C1105       C  0.18067601  0.69358488  0.67312488    -0.06000
C1106       C  0.18264169  0.72905180  0.65477114    -0.00100
C1107       C  0.17686662  0.73149287  0.61481460    -0.08700
C1108       C  0.16687195  0.69830736  0.59495709    -0.06000
C1109       C  0.16171315  0.66377574  0.61401723    -0.00100
C1110       C  0.16958796  0.66070581  0.65334542    -0.08600
C1111       C  0.16568039  0.62298668  0.67413020     0.61800
H1112       H  0.18596237  0.69221274  0.70354133     0.12500
H1113       H  0.16010576  0.69967497  0.56481742     0.12500
C1114       C  0.18050340  0.76873455  0.59314738     0.62000
F1115       F  0.17727832  0.62568809  0.71178627    -0.23100
F1116       F  0.18788593  0.59571246  0.65622145    -0.20500
F1117       F  0.12821061  0.61122051  0.67381809    -0.20100
F1118       F  0.21448803  0.78623863  0.60229473    -0.20200
F1119       F  0.15057716  0.79265282  0.60234863    -0.20500
F1120       F  0.17990019  0.76298148  0.55404176    -0.23200
C1121       C  0.92618850  0.64716788  0.66401985    -0.06000
C1122       C  0.96549153  0.65262086  0.66864220    -0.00100
C1123       C  0.97870207  0.68520492  0.68873262    -0.08700
C1124       C  0.95187733  0.71222935  0.70145632    -0.06000
C1125       C  0.91286930  0.70789806  0.69436261    -0.00100
C1126       C  0.89957420  0.67471092  0.67577470    -0.08600
C1127       C  0.85787147  0.66977663  0.66573514     0.61800
H1128       H  0.91653576  0.62216347  0.64869410     0.12500
H1129       H  0.96133157  0.73808788  0.71545694     0.12500
C1130       C  0.02065258  0.69178447  0.69669672     0.62000
F1131       F  0.85153249  0.63684408  0.64487629    -0.23100
F1132       F  0.84561478  0.70034022  0.64406008    -0.20500
F1133       F  0.83647174  0.66776359  0.69874023    -0.20100
F1134       F  0.03954588  0.70033935  0.66323068    -0.20200
F1135       F  0.03645244  0.65947061  0.71279405    -0.20500
F1136       F  0.02621618  0.72181700  0.72179094    -0.23200
C1137       C  0.09225380  0.39866989  0.36475255    -0.06000
C1138       C  0.11381182  0.40834122  0.39701477    -0.00100
C1139       C  0.15284006  0.39891962  0.39853227    -0.08700
C1140       C  0.16987850  0.38255194  0.36619493    -0.06000
C1141       C  0.14909639  0.37594994  0.33268787    -0.00100
C1142       C  0.10938169  0.38252711  0.33219632    -0.08600
C1143       C  0.08528087  0.37216162  0.29776747     0.61800
H1144       H  0.06224455  0.40564898  0.36455119     0.12500
H1145       H  0.20010449  0.37660437  0.36617847     0.12500
C1146       C  0.17626524  0.40627647  0.43413917     0.62000
F1147       F  0.04684638  0.37609169  0.30532422    -0.23100
F1148       F  0.09203653  0.33462334  0.28758954    -0.20500
F1149       F  0.09404422  0.39555038  0.26736798    -0.20100
F1150       F  0.15867973  0.38980304  0.46528685    -0.20200
F1151       F  0.17967998  0.44503674  0.44030858    -0.20500
F1152       F  0.21246226  0.39099977  0.43110676    -0.23200
C1153       C  0.19524766  0.66766730  0.39414150    -0.06000
C1154       C  0.20736204  0.65096384  0.35992362    -0.00100
C1155       C  0.20895341  0.61076916  0.35673702    -0.08700
C1156       C  0.19341122  0.58868428  0.38616135    -0.06000
C1157       C  0.17757156  0.60545657  0.41900625    -0.00100
C1158       C  0.17991380  0.64571560  0.42389527    -0.08600
C1159       C  0.16379292  0.66611072  0.45869655     0.61800
H1160       H  0.19490068  0.69846392  0.39607191     0.12500
H1161       H  0.19230771  0.55798930  0.38282890     0.12500
C1162       C  0.22480619  0.59069619  0.32175228     0.62000
F1163       F  0.16715034  0.70531399  0.45595661    -0.23100
F1164       F  0.18318282  0.65480581  0.49107442    -0.20500
F1165       F  0.12557978  0.65779158  0.46249778    -0.20100
F1166       F  0.25337271  0.61191610  0.30499872    -0.20200
F1167       F  0.19598467  0.58486299  0.29558261    -0.20500
F1168       F  0.24019357  0.55569869  0.33154748    -0.23200
C1169       C  0.87743692  0.47859696  0.67592598    -0.06000
C1170       C  0.90729367  0.45663851  0.66089053    -0.00100
C1171       C  0.90726677  0.41660787  0.66539368    -0.08700
C1172       C  0.87503232  0.39936001  0.68125336    -0.06000
C1173       C  0.84348927  0.42106817  0.69260301    -0.00100
C1174       C  0.84524648  0.46129612  0.69199892    -0.08600
C1175       C  0.81357161  0.48558737  0.70866603     0.61800
H1176       H  0.87860756  0.50930905  0.67313215     0.12500
H1177       H  0.87340196  0.36858228  0.68296497     0.12500
C1178       C  0.94097801  0.39228534  0.65338235     0.62000
F1179       F  0.82291217  0.52389955  0.70890775    -0.23100
F1180       F  0.80673637  0.47457366  0.74590968    -0.20500
F1181       F  0.78073404  0.48119386  0.68751859    -0.20100
F1182       F  0.97423725  0.40804037  0.66729993    -0.20200
F1183       F  0.94289218  0.39019170  0.61404243    -0.20500
F1184       F  0.93822914  0.35556624  0.66745481    -0.23200
C1185       C  0.86408156  0.36820625  0.44929656    -0.06000
C1186       C  0.86419588  0.38145659  0.41161167    -0.00100
C1187       C  0.89421027  0.40440818  0.39821443    -0.08700
C1188       C  0.92332688  0.41404768  0.42363017    -0.06000
C1189       C  0.92212458  0.40287421  0.46201967    -0.00100
C1190       C  0.89273789  0.37868949  0.47510524    -0.08600
C1191       C  0.89148248  0.36412265  0.51587204     0.61800
H1192       H  0.84039542  0.35097862  0.45878005     0.12500
H1193       H  0.94595888  0.43273364  0.41434913     0.12500
C1194       C  0.89392703  0.42093183  0.35819753     0.62000
F1195       F  0.86481144  0.33551196  0.52019283    -0.23100
F1196       F  0.88200269  0.39343367  0.54056301    -0.20500
F1197       F  0.92659485  0.34941349  0.52589670    -0.20100
F1198       F  0.86184829  0.44329818  0.35335877    -0.20200
F1199       F  0.89373863  0.39180594  0.33158025    -0.20500
F1200       F  0.92548267  0.44338957  0.35134053    -0.23200
C1201       C  0.36939895  0.89659202  0.18267888    -0.06000
C1202       C  0.33781266  0.91886793  0.19256509    -0.00100
C1203       C  0.33938358  0.95898010  0.18960271    -0.08700
C1204       C  0.37243762  0.97554963  0.17453823    -0.06000
C1205       C  0.40264761  0.95293055  0.16124166    -0.00100
C1206       C  0.40178603  0.91295953  0.16624623    -0.08600
C1207       C  0.43414364  0.88755832  0.15290954     0.61800
H1208       H  0.36738025  0.86589845  0.18532282     0.12500
H1209       H  0.37383809  0.00611347  0.17055113     0.12500
C1210       C  0.30609997  0.98387036  0.20165296     0.62000
F1211       F  0.43068731  0.85087047  0.16692251    -0.23100
F1212       F  0.46848829  0.90206624  0.16539439    -0.20500
F1213       F  0.43422683  0.88563585  0.11351332    -0.20100
F1214       F  0.29598607  0.97548747  0.23883446    -0.20200
F1215       F  0.27536613  0.97734972  0.17797705    -0.20500
F1216       F  0.31492206  0.02225366  0.19983485    -0.23200
C1217       C  0.96226053  0.16165514  0.37205927    -0.06000
C1218       C  0.93833656  0.15335809  0.40304142    -0.00100
C1219       C  0.89996366  0.16550565  0.40246927    -0.08700
C1220       C  0.88563996  0.18146988  0.36879050    -0.06000
C1221       C  0.90868516  0.18598057  0.33649500    -0.00100
C1222       C  0.94799557  0.17811067  0.33856297    -0.08600
C1223       C  0.97465312  0.18740474  0.30582431     0.61800
H1224       H  0.99185832  0.15318278  0.37339335     0.12500
H1225       H  0.85577097  0.18885453  0.36688776     0.12500
C1226       C  0.87400809  0.16132152  0.43678834     0.62000
F1227       F  0.01237497  0.18272877  0.31607662    -0.23100
F1228       F  0.96951870  0.22494167  0.29492852    -0.20500
F1229       F  0.96739251  0.16378199  0.27508694    -0.20100
F1230       F  0.89319795  0.17105832  0.46986021    -0.20200
F1231       F  0.86148011  0.12411671  0.43937817    -0.20500
F1232       F  0.84255599  0.18494684  0.43394541    -0.23200
C1233       C  0.15625199  0.40126071  0.90229510    -0.06000
C1234       C  0.14414114  0.39761982  0.94020748    -0.00100
C1235       C  0.15036555  0.36299836  0.96016202    -0.08700
C1236       C  0.16643643  0.33228813  0.94022806    -0.06000
C1237       C  0.17718369  0.33554301  0.90193744    -0.00100
C1238       C  0.17328234  0.37077691  0.88273420    -0.08600
C1239       C  0.18552228  0.37584929  0.84149398     0.61800
H1240       H  0.15157999  0.42815193  0.88791144     0.12500
H1241       H  0.17025922  0.30505280  0.95421644     0.12500
C1242       C  0.13899785  0.35773740  0.00171665     0.62000
F1243       F  0.17638944  0.41169848  0.82779142    -0.23100
F1244       F  0.16767222  0.34915882  0.81862274    -0.20500
F1245       F  0.22447356  0.37141611  0.83862083    -0.20100
F1246       F  0.10087045  0.36621901  0.00650638    -0.20200
F1247       F  0.16060707  0.38141496  0.02461775    -0.20500
F1248       F  0.14480416  0.32069608  0.01398846    -0.23200
C1249       C  0.23833345  0.94084043  0.91576334    -0.06000
C1250       C  0.23549386  0.92073260  0.88104154    -0.00100
C1251       C  0.20108823  0.92380966  0.85962780    -0.08700
C1252       C  0.16931152  0.94137035  0.87689501    -0.06000
C1253       C  0.17172363  0.95748545  0.91334612    -0.00100
C1254       C  0.20733325  0.96004595  0.93176900    -0.08600
C1255       C  0.21285495  0.98363593  0.96789075     0.61800
H1256       H  0.26484596  0.94065643  0.93137902     0.12500
H1257       H  0.14208044  0.94177318  0.86247184     0.12500
C1258       C  0.19759948  0.91008027  0.81864041     0.62000
F1259       F  0.25094995  0.98842535  0.97650376    -0.23100
F1260       F  0.19574781  0.96597686  0.99858839    -0.20500
F1261       F  0.19708565  0.01947732  0.96303672    -0.20100
F1262       F  0.19563735  0.87076442  0.81746695    -0.20200
F1263       F  0.22851363  0.92248343  0.79771005    -0.20500
F1264       F  0.16519805  0.92433898  0.80129083    -0.23200
C1265       C  0.17499137  0.88544365  0.17005596    -0.06000
C1266       C  0.21095812  0.87937608  0.15432580    -0.00100
C1267       C  0.21567595  0.87994312  0.11419281    -0.08700
C1268       C  0.18461118  0.89070590  0.09143315    -0.06000
C1269       C  0.14913032  0.90042632  0.10736586    -0.00100
C1270       C  0.14381138  0.89580112  0.14733887    -0.08600
C1271       C  0.10579007  0.90189282  0.16635263     0.61800
H1272       H  0.17198377  0.88389533  0.20077197     0.12500
H1273       H  0.18834808  0.89283947  0.06085038     0.12500
C1274       C  0.25288511  0.86838527  0.09528010     0.62000
F1275       F  0.10681665  0.89415952  0.20506825    -0.23100
F1276       F  0.07997643  0.87736637  0.14979738    -0.20500
F1277       F  0.09414671  0.93932687  0.16194269    -0.20100
F1278       F  0.26466970  0.83354973  0.10945634    -0.20200
F1279       F  0.28060697  0.89535689  0.10212192    -0.20500
F1280       F  0.24902838  0.86477881  0.05611674    -0.23200
C1281       C  0.88978366  0.20322013  0.89544420    -0.06000
C1282       C  0.88561180  0.23669470  0.91704389    -0.00100
C1283       C  0.89223689  0.23620060  0.95686412    -0.08700
C1284       C  0.90449604  0.20199585  0.97354129    -0.06000
C1285       C  0.91100280  0.16928549  0.95141731    -0.00100
C1286       C  0.90287268  0.16933010  0.91197702    -0.08600
C1287       C  0.90741302  0.13363313  0.88776225     0.61800
H1288       H  0.88398944  0.20423141  0.86510666     0.12500
H1289       H  0.91128699  0.20111839  0.00368418     0.12500
C1290       C  0.88658574  0.27140169  0.98156656     0.62000
F1291       F  0.89654861  0.13972064  0.85030104    -0.23100
F1292       F  0.88496201  0.10497115  0.90258879    -0.20500
F1293       F  0.94488464  0.12173899  0.88751931    -0.20100
F1294       F  0.85074071  0.28646015  0.97545302    -0.20200
F1295       F  0.91364410  0.29846273  0.97273956    -0.20500
F1296       F  0.88989977  0.26310200  0.02003115    -0.23200
C1297       C  0.16893046  0.17106106  0.88573479    -0.06000
C1298       C  0.15188881  0.20311006  0.86933361    -0.00100
C1299       C  0.11270537  0.20312596  0.86078333    -0.08700
C1300       C  0.09064419  0.17264953  0.87379489    -0.06000
C1301       C  0.10696790  0.14224078  0.89397612    -0.00100
C1302       C  0.14712970  0.14013879  0.89824079    -0.08600
C1303       C  0.16695423  0.10703511  0.91798445     0.61800
H1304       H  0.19929548  0.17157268  0.89083721     0.12500
H1305       H  0.06014078  0.17304731  0.86957899     0.12500
C1306       C  0.09462288  0.23462144  0.83728823     0.62000
F1307       F  0.20597780  0.11183835  0.91947923    -0.23100
F1308       F  0.15997283  0.07354349  0.89835097    -0.20500
F1309       F  0.15393898  0.10388768  0.95502027    -0.20100
F1310       F  0.11449707  0.23870163  0.80348146    -0.20200
F1311       F  0.09519729  0.26870572  0.85708439    -0.20500
F1312       F  0.05718135  0.22650260  0.82836256    -0.23200
C1313       C  0.90923390  0.92899933  0.16990000    -0.06000
C1314       C  0.94739254  0.91732686  0.16644263    -0.00100
C1315       C  0.96301417  0.89206096  0.19388862    -0.08700
C1316       C  0.94036389  0.88078578  0.22468481    -0.06000
C1317       C  0.90335452  0.89438283  0.22882853    -0.00100
C1318       C  0.88692164  0.91812732  0.20103585    -0.08600
C1319       C  0.84635617  0.93243082  0.20496767     0.61800
H1320       H  0.89738378  0.94797631  0.14864197     0.12500
H1321       H  0.95163997  0.86205882  0.24648198     0.12500
C1322       C  0.00379943  0.87889419  0.19220719     0.62000
F1323       F  0.83608195  0.95608779  0.17514197    -0.23100
F1324       F  0.84249820  0.95271229  0.23865337    -0.20500
F1325       F  0.82169524  0.90181539  0.20536421    -0.20100
F1326       F  0.02709941  0.91048142  0.19292643    -0.20200
F1327       F  0.00944631  0.85805741  0.15915095    -0.20500
F1328       F  0.01354113  0.85595178  0.22279553    -0.23200
C1329       C  0.87048449  0.12071436  0.20892202    -0.06000
C1330       C  0.87455986  0.16006886  0.20383533    -0.00100
C1331       C  0.88578974  0.17457029  0.16790854    -0.08700
C1332       C  0.89646205  0.14855616  0.13928803    -0.06000
C1333       C  0.89619625  0.10906086  0.14576528    -0.00100
C1334       C  0.88044848  0.09473869  0.18013601    -0.08600
C1335       C  0.87499012  0.05239831  0.18724703     0.61800
H1336       H  0.86097146  0.11030675  0.23638998     0.12500
H1337       H  0.90758963  0.15903506  0.11250665     0.12500
C1338       C  0.88876194  0.21711891  0.16052476     0.62000
F1339       F  0.84907399  0.04607183  0.21627680    -0.23100
F1340       F  0.90915107  0.03587284  0.19765494    -0.20500
F1341       F  0.86127080  0.03479178  0.15469000    -0.20100
F1342       F  0.91266864  0.23376508  0.18707129    -0.20200
F1343       F  0.85311081  0.23361449  0.16304754    -0.20500
F1344       F  0.90307708  0.22480112  0.12456790    -0.23200
loop_ 
_geom_bond_atom_site_label_1 
_geom_bond_atom_site_label_2 
_geom_bond_distance 
_geom_bond_site_symmetry_2 
_ccdc_geom_bond_type 
C1            N2   1.357       .  A
C1            N6   1.351       .  A
C1          C173   1.456       .  S
N2            C3   1.355       .  A
C3            N4   1.357       .  A
C3          C569   1.460       .  S
N4            C5   1.355       .  A
C5            N6   1.354       .  A
C5          C305   1.453       .  S
C7            N8   1.351       .  A
C7           N12   1.362       .  A
C7          C167   1.453       .  S
N8            C9   1.350       .  A
C9           N10   1.351       .  A
C9          C555   1.449       .  S
N10          C11   1.354       .  A
C11          N12   1.358       .  A
C11         C105   1.462       .  S
C13          N14   1.349       .  A
C13          N18   1.355       .  A
C13         C489   1.450       .  S
N14          C15   1.346       .  A
C15          N16   1.357       .  A
C15         C239   1.451       .  S
N16          C17   1.358       .  A
C17          N18   1.359       .  A
C17         C359   1.459       .  S
C19          N20   1.355       .  A
C19          N24   1.354       .  A
C19         C363   1.457       .  S
N20          C21   1.356       .  A
C21          N22   1.351       .  A
C21         C233   1.449       .  S
N22          C23   1.350       .  A
C23          N24   1.355       .  A
C23         C431   1.448       .  S
C25          N26   1.353       .  A
C25          N30   1.353       .  A
C25         C161   1.453       .  S
N26          C27   1.355       .  A
C27          N28   1.353       .  A
C27          C99   1.449       .  S
N28          C29   1.353       .  A
C29          N30   1.353       .  A
C29         C297   1.450       .  S
C31          N32   1.351       .  A
C31          N36   1.355       .  A
C31         C501   1.456       .  S
N32          C33   1.352       .  A
C33          N34   1.359       .  A
C33         C369   1.456       .  S
N34          C35   1.358       .  A
C35          N36   1.357       .  A
C35         C425   1.463       .  S
C37          N38   1.354       .  A
C37          N42   1.353       .  A
C37         C227   1.455       .  S
N38          C39   1.356       .  A
C39          N40   1.358       .  A
C39         C435   1.462       .  S
N40          C41   1.359       .  A
C41          N42   1.352       .  A
C41         C495   1.459       .  S
O43         Mg45   2.107   1_546  S
O43         Mg51   2.136       .  S
O43          C78   1.234   1_556  S
C44          O57   1.236   1_655  S
C44          O81   1.271       .  A
C44          H83   1.085       .  S
Mg45         O74   2.145       .  S
Mg45         O89   2.270   1_554  S
Mg45         O85   2.235       .  S
Mg45         O56   2.287   1_565  S
O46         Mg88   2.142       .  S
O46         Mg71   2.109   1_654  S
O46          C67   1.234   1_655  S
O47          C78   1.267       .  A
O47         Mg71   2.285   1_554  S
C48        C1314   1.479       .  S
C48          O50   1.272       .  A
C48          O62   1.268       .  A
O49          C77   1.272       .  A
O49         Mg51   2.303   1_565  S
O50         Mg82   2.281   1_655  S
Mg51         O57   2.143       .  S
Mg51         O65   2.261   1_545  S
Mg51         O53   2.267       .  S
C52        C1333   1.478       .  S
C52          O90   1.266       .  A
C52          O58   1.274       .  A
O53          C60   1.268       .  A
H54          C67   1.082       .  S
C55          O69   1.238   1_565  S
C55          O70   1.273       .  A
C55          H80   1.084       .  S
O56          C79   1.267       .  A
O57         Mg71   2.159       .  S
O58         Mg88   2.303       .  S
C59        C1285   1.461       .  S
C59          O72   1.270       .  A
C59          O64   1.271       .  A
C60        C1301   1.472       .  S
C60          O87   1.270       .  A
Mg61         O68   2.112   1_645  S
Mg61         O69   2.152       .  S
Mg61         O62   2.239   1_545  S
Mg61         O63   2.283   1_655  S
Mg61         O90   2.229       .  S
O63          C67   1.266       .  A
O64         Mg71   2.268   1_655  S
O65          C84   1.269       .  A
O66          C86   1.276       .  A
O66         Mg82   2.320       .  S
O68         Mg82   2.148       .  S
O68          C79   1.234   1_565  S
O69         Mg88   2.138       .  S
O70         Mg82   2.307   1_655  S
Mg71         O87   2.243       .  S
O72         Mg88   2.255   1_556  S
H73          C78   1.081       .  S
O74         Mg82   2.131       .  S
O74          C77   1.238   1_554  S
H75          C77   1.083       .  S
H76          C79   1.082       .  S
O81         Mg88   2.304   1_556  S
C84        C1253   1.468       .  S
C84          O89   1.270       .  A
O85          C86   1.270       .  A
C86        C1269   1.494       .  S
C91          N92   1.354       .  A
C91          N96   1.352       .  A
C91        C1237   1.466       .  S
N92          C93   1.354       .  A
C93          N94   1.352       .  A
C93        C1298   1.461       .  S
N94          C95   1.354       .  A
C95          N96   1.355       .  A
C95         C573   1.448       .  S
C97          N98   1.351       .  A
C97         N102   1.355       .  A
C97        C1221   1.465       .  S
N98          C99   1.353       .  A
C99         N100   1.356       .  A
N100        C101   1.354       .  A
C101        N102   1.357       .  A
C101       C1330   1.471       .  S
C103        N104   1.351       .  A
C103        N108   1.351       .  A
C103       C1202   1.464       .  S
N104        C105   1.357       .  A
C105        N106   1.360       .  A
N106        C107   1.361       .  A
C107        N108   1.354       .  A
C107       C1266   1.473       .  S
O109       Mg111   2.127       .  S
O109       Mg117   2.153       .  S
O109        C144   1.234       .  S
C110        O123   1.236       .  S
C110        O147   1.270       .  A
C110        H149   1.083       .  S
Mg111       O140   2.148       .  S
Mg111       O155   2.242       .  S
Mg111       O151   2.263       .  S
Mg111       O122   2.285   1_455  S
O112       Mg154   2.147       .  S
O112       Mg137   2.126       .  S
O112        C133   1.237       .  S
O113        C144   1.267       .  A
O113       Mg137   2.287       .  S
C114       C1170   1.468       .  S
C114        O116   1.269       .  A
C114        O128   1.272       .  A
O115        C143   1.271       .  A
O115       Mg117   2.296       .  S
O116       Mg148   2.251   1_655  S
Mg117       O123   2.128       .  S
Mg117       O131   2.256       .  S
Mg117       O119   2.293       .  S
C118       C1189   1.467       .  S
C118        O156   1.266       .  A
C118        O124   1.271       .  A
O119        C126   1.272       .  A
H120        C133   1.082       .  S
C121        O135   1.238       .  S
C121        O136   1.273       .  A
C121        H146   1.084       .  S
O122        C145   1.267       .  A
O123       Mg137   2.152       .  S
O124       Mg154   2.278   1_655  S
C125       C1138   1.470       .  S
C125        O138   1.272       .  A
C125        O130   1.273       .  A
C126       C1157   1.486       .  S
C126        O153   1.274       .  A
Mg127       O134   2.109       .  S
Mg127       O135   2.148   1_655  S
Mg127       O128   2.285       .  S
Mg127       O129   2.301       .  S
Mg127       O156   2.236       .  S
O129        C133   1.270   1_655  A
O130       Mg137   2.287       .  S
O131        C150   1.270       .  A
O132        C152   1.275       .  A
O132       Mg148   2.302   1_655  S
O134       Mg148   2.139   1_655  S
O134        C145   1.235       .  S
O135       Mg154   2.156       .  S
O136       Mg148   2.312       .  S
Mg137       O153   2.265       .  S
O138       Mg154   2.272       .  S
H139        C144   1.081       .  S
O140       Mg148   2.118       .  S
O140        C143   1.238       .  S
H141        C143   1.084       .  S
H142        C145   1.082       .  S
O147       Mg154   2.295       .  S
C150       C1109   1.454       .  S
C150        O155   1.268       .  A
O151        C152   1.270   1_455  A
C152       C1122   1.484       .  S
C157        N158   1.353       .  A
C157        N162   1.351       .  A
C157       C1093   1.462       .  S
N158        C159   1.352       .  A
C159        N160   1.355       .  A
C159       C1186   1.460       .  S
N160        C161   1.357       .  A
C161        N162   1.355       .  A
C163        N164   1.356       .  A
C163        N168   1.349       .  A
C163       C1074   1.467       .  S
N164        C165   1.352       .  A
C165        N166   1.358       .  A
C165       C1154   1.475       .  S
N166        C167   1.361       .  A
C167        N168   1.352       .  A
C169        N170   1.354       .  A
C169        N174   1.348       .  A
C169       C1061   1.462       .  S
N170        C171   1.354       .  A
C171        N172   1.360       .  A
C171       C1125   1.475       .  S
N172        C173   1.362       .  A
C173        N174   1.352       .  A
O175       Mg177   2.124       .  S
O175       Mg183   2.144   1_545  S
O175        C210   1.238       .  S
C176        O189   1.234       .  S
C176        O213   1.267       .  A
C176        H215   1.083       .  S
Mg177       O206   2.139       .  S
Mg177       O221   2.297       .  S
Mg177       O217   2.236       .  S
Mg177       O188   2.302       .  S
O178       Mg220   2.148       .  S
O178       Mg203   2.125   1_545  S
O178        C199   1.237       .  S
O179        C210   1.272       .  A
O179       Mg203   2.300   1_645  S
C180       C1045   1.486       .  S
C180        O182   1.269       .  A
C180        O194   1.268       .  A
O181        C209   1.268   1_565  A
O181       Mg183   2.290   1_455  S
O182       Mg214   2.233       .  S
Mg183       O189   2.122   1_655  S
Mg183       O197   2.253       .  S
Mg183       O185   2.274       .  S
C184       C1029   1.478       .  S
C184        O222   1.269       .  A
C184        O190   1.273       .  A
O185        C192   1.270       .  A
H186        C199   1.083       .  S
C187        O201   1.235       .  S
C187        O202   1.268       .  A
C187        H212   1.082       .  S
O188        C211   1.272       .  A
O189       Mg203   2.137       .  S
O190       Mg220   2.289       .  S
C191       C1010   1.494       .  S
C191        O204   1.271       .  A
C191        O196   1.272       .  A
C192       C1058   1.467       .  S
C192        O219   1.270       .  A
Mg193       O200   2.137       .  S
Mg193       O201   2.141       .  S
Mg193       O194   2.277       .  S
Mg193       O195   2.294       .  S
Mg193       O222   2.245       .  S
O195        C199   1.270       .  A
O196       Mg203   2.303       .  S
O197        C216   1.272       .  A
O198        C218   1.272       .  A
O198       Mg214   2.279   1_655  S
O200       Mg214   2.146       .  S
O200        C211   1.237   1_455  S
O201       Mg220   2.113       .  S
O202       Mg214   2.295       .  S
Mg203       O219   2.234   1_455  S
O204       Mg220   2.237   1_565  S
H205        C210   1.082       .  S
O206       Mg214   2.114   1_655  S
O206        C209   1.235   1_655  S
H207        C209   1.082       .  S
H208        C211   1.082       .  S
O213       Mg220   2.292   1_565  S
C216        C997   1.497       .  S
C216        O221   1.271   1_565  A
O217        C218   1.268       .  A
C218       C1218   1.471       .  S
C223        N224   1.354       .  A
C223        N228   1.352       .  A
C223       C1106   1.468       .  S
N224        C225   1.356       .  A
C225        N226   1.356       .  A
C225       C1013   1.468       .  S
N226        C227   1.356       .  A
C227        N228   1.354       .  A
C229        N230   1.354       .  A
C229        N234   1.351       .  A
C229        C978   1.458       .  S
N230        C231   1.358       .  A
C231        N232   1.352       .  A
C231       C1042   1.467       .  S
N232        C233   1.352       .  A
C233        N234   1.354       .  A
C235        N236   1.356       .  A
C235        N240   1.349       .  A
C235       C1317   1.451       .  S
N236        C237   1.357       .  A
C237        N238   1.356       .  A
C237        C994   1.482       .  S
N238        C239   1.358       .  A
C239        N240   1.349       .  A
O241       Mg243   2.114       .  S
O241       Mg249   2.143       .  S
O241        C276   1.234       .  S
C242        O255   1.237       .  S
C242        O279   1.271       .  A
C242        H281   1.083       .  S
Mg243       O272   2.147       .  S
Mg243       O287   2.252       .  S
Mg243       O283   2.227       .  S
Mg243       O254   2.284       .  S
O244       Mg286   2.145   1_556  S
O244       Mg269   2.110       .  S
O244        C265   1.235       .  S
O245        C276   1.267   1_556  A
O245       Mg269   2.289       .  S
C246        C885   1.465       .  S
C246        O248   1.272       .  A
C246        O260   1.269       .  A
O247        C275   1.271       .  A
O247       Mg249   2.303       .  S
O248       Mg280   2.270       .  S
Mg249       O255   2.125       .  S
Mg249       O263   2.242       .  S
Mg249       O251   2.286   1_554  S
C250        C901   1.469       .  S
C250        O288   1.268   1_556  A
C250        O256   1.272       .  A
O251        C258   1.272       .  A
H252        C265   1.081       .  S
C253        O267   1.237       .  S
C253        O268   1.271       .  A
C253        H278   1.084       .  S
O254        C277   1.267       .  A
O255       Mg269   2.151   1_554  S
O256       Mg286   2.289   1_556  S
C257        C949   1.471       .  S
C257        O270   1.270       .  A
C257        O262   1.270       .  A
C258        C962   1.468       .  S
C258        O285   1.269       .  A
Mg259       O266   2.103       .  S
Mg259       O267   2.147       .  S
Mg259       O260   2.263       .  S
Mg259       O261   2.288   1_554  S
Mg259       O288   2.228       .  S
O261        C265   1.268       .  A
O262       Mg269   2.260       .  S
O263        C282   1.267       .  A
O264        C284   1.274       .  A
O264       Mg280   2.295       .  S
O266       Mg280   2.140       .  S
O266        C277   1.234       .  S
O267       Mg286   2.134       .  S
O268       Mg280   2.300       .  S
Mg269       O285   2.229       .  S
O270       Mg286   2.265   1_556  S
H271        C276   1.083       .  S
O272       Mg280   2.137       .  S
O272        C275   1.237       .  S
H273        C275   1.083       .  S
H274        C277   1.082       .  S
O279       Mg286   2.300       .  S
C282        C914   1.459       .  S
C282        O287   1.269       .  A
O283        C284   1.267       .  A
C284        C930   1.474       .  S
C289        N290   1.352       .  A
C289        N294   1.354       .  A
C289        C866   1.460       .  S
N290        C291   1.355       .  A
C291        N292   1.356       .  A
C291        C575   1.450       .  S
N292        C293   1.353       .  A
C293        N294   1.355       .  A
C293        C965   1.468       .  S
C295        N296   1.354       .  A
C295        N300   1.361       .  A
C295        C850   1.493       .  S
N296        C297   1.356       .  A
C297        N298   1.352       .  A
N298        C299   1.350       .  A
C299        N300   1.356       .  A
C299        C933   1.466       .  S
C301        N302   1.351       .  A
C301        N306   1.348       .  A
C301        C834   1.451       .  S
N302        C303   1.353       .  A
C303        N304   1.358       .  A
C303        C898   1.460       .  S
N304        C305   1.358       .  A
C305        N306   1.353       .  A
O307       Mg309   2.109   1_455  S
O307       Mg315   2.138       .  S
O307        C342   1.238       .  S
C308        O321   1.234       .  S
C308        O345   1.266       .  A
C308        H347   1.082       .  S
Mg309       O338   2.127       .  S
Mg309       O353   2.307       .  S
Mg309       O349   2.206   1_554  S
Mg309       O320   2.310   1_654  S
O310       Mg352   2.155       .  S
O310       Mg335   2.118       .  S
O310        C331   1.237   1_554  S
O311        C342   1.271       .  A
O311       Mg335   2.294       .  S
C312        C789   1.493       .  S
C312        O314   1.267       .  A
C312        O326   1.275   1_655  A
O313        C341   1.268       .  A
O313       Mg315   2.291   1_655  S
O314       Mg346   2.247       .  S
Mg315       O321   2.110       .  S
Mg315       O329   2.249   1_455  S
Mg315       O317   2.250       .  S
C316       C1234   1.469       .  S
C316        O354   1.271       .  A
C316        O322   1.269       .  A
O317        C324   1.267       .  A
H318        C331   1.082       .  S
C319        O333   1.235       .  S
C319        O334   1.268   1_455  A
C319        H344   1.082       .  S
O320        C343   1.273       .  A
O321       Mg335   2.144       .  S
O322       Mg352   2.267   1_556  S
C323        C818   1.490       .  S
C323        O336   1.273       .  A
C323        O328   1.270       .  A
C324       C1077   1.454       .  S
C324        O351   1.269       .  A
Mg325       O332   2.136       .  S
Mg325       O333   2.143   1_556  S
Mg325       O326   2.294       .  S
Mg325       O327   2.295       .  S
Mg325       O354   2.246       .  S
O327        C331   1.270       .  A
O328       Mg335   2.281       .  S
O329        C348   1.266       .  A
O330        C350   1.273       .  A
O330       Mg346   2.289       .  S
O332       Mg346   2.148   1_455  S
O332        C343   1.239       .  S
O333       Mg352   2.124       .  S
O334       Mg346   2.293   1_554  S
Mg335       O351   2.236       .  S
O336       Mg352   2.259       .  S
H337        C342   1.082       .  S
O338       Mg346   2.116   1_554  S
O338        C341   1.234       .  S
H339        C341   1.082       .  S
H340        C343   1.082       .  S
O345       Mg352   2.281       .  S
C348        C802   1.499       .  S
C348        O353   1.275       .  A
O349        C350   1.263       .  A
C350        C837   1.480       .  S
C355        N356   1.356       .  A
C355        N360   1.353       .  A
C355        C882   1.468       .  S
N356        C357   1.357       .  A
C357        N358   1.359       .  A
C357        C805   1.477       .  S
N358        C359   1.358       .  A
C359        N360   1.354       .  A
C361        N362   1.354       .  A
C361        N366   1.355       .  A
C361       C1141   1.472       .  S
N362        C363   1.356       .  A
C363        N364   1.357       .  A
N364        C365   1.355       .  A
C365        N366   1.359       .  A
C365        C821   1.486       .  S
C367        N368   1.354       .  A
C367        N372   1.356       .  A
C367       C1282   1.467       .  S
N368        C369   1.353       .  A
C369        N370   1.357       .  A
N370        C371   1.356       .  A
C371        N372   1.356       .  A
C371        C786   1.480       .  S
O373       Mg375   2.116   1_545  S
O373       Mg381   2.147       .  S
O373        C408   1.235       .  S
C374        O387   1.238       .  S
C374        O411   1.273       .  A
C374        H413   1.084       .  S
Mg375       O404   2.143       .  S
Mg375       O419   2.283       .  S
Mg375       O415   2.248       .  S
Mg375       O386   2.291   1_564  S
O376       Mg418   2.138       .  S
O376       Mg401   2.115       .  S
O376        C397   1.234       .  S
O377        C408   1.269       .  A
O377       Mg401   2.289       .  S
C378        C741   1.462       .  S
C378        O380   1.269       .  A
C378        O392   1.270       .  A
O379        C407   1.271       .  A
O379       Mg381   2.298   1_565  S
O380       Mg412   2.250   1_556  S
Mg381       O387   2.150       .  S
Mg381       O395   2.264   1_545  S
Mg381       O383   2.282       .  S
C382        C757   1.496       .  S
C382        O420   1.273       .  A
C382        O388   1.275       .  A
O383        C390   1.270       .  A
H384        C397   1.082       .  S
C385        O399   1.239   1_565  S
C385        O400   1.273       .  A
C385        H410   1.084       .  S
O386        C409   1.268       .  A
O387       Mg401   2.151       .  S
O388       Mg418   2.319   1_556  S
C389        C853   1.466       .  S
C389        O402   1.272       .  A
C389        O394   1.271       .  A
C390        C770   1.475       .  S
C390        O417   1.269       .  A
Mg391       O398   2.129   1_545  S
Mg391       O399   2.154   1_556  S
Mg391       O392   2.264   1_545  S
Mg391       O393   2.287       .  S
Mg391       O420   2.259       .  S
O393        C397   1.267   1_556  A
O394       Mg401   2.275       .  S
O395        C414   1.271       .  A
O396        C416   1.276       .  A
O396       Mg412   2.312   1_556  S
O398       Mg412   2.147   1_556  S
O398        C409   1.235   1_565  S
O399       Mg418   2.139       .  S
O400       Mg412   2.306       .  S
Mg401       O417   2.244       .  S
O402       Mg418   2.271       .  S
H403        C408   1.081       .  S
O404       Mg412   2.127       .  S
O404        C407   1.237       .  S
H405        C407   1.083       .  S
H406        C409   1.082       .  S
O411       Mg418   2.309       .  S
C414       C1205   1.469       .  S
C414        O419   1.272       .  A
O415        C416   1.270   1_554  A
C416        C722   1.485       .  S
C421        N422   1.354       .  A
C421        N426   1.352       .  A
C421        C706   1.467       .  S
N422        C423   1.357       .  A
C423        N424   1.361       .  A
C423        C754   1.481       .  S
N424        C425   1.361       .  A
C425        N426   1.356       .  A
C427        N428   1.355       .  A
C427        N432   1.349       .  A
C427        C917   1.455       .  S
N428        C429   1.355       .  A
C429        N430   1.355       .  A
C429        C773   1.465       .  S
N430        C431   1.357       .  A
C431        N432   1.351       .  A
C433        N434   1.355       .  A
C433        N438   1.358       .  A
C433       C1250   1.496       .  S
N434        C435   1.359       .  A
C435        N436   1.359       .  A
N436        C437   1.356       .  A
C437        N438   1.354       .  A
C437        C725   1.470       .  S
O439       Mg441   2.120       .  S
O439       Mg447   2.158       .  S
O439        C474   1.237       .  S
C440        O453   1.234       .  S
C440        O477   1.267       .  A
C440        H479   1.082       .  S
Mg441       O470   2.151       .  S
Mg441       O485   2.276       .  S
Mg441       O481   2.239       .  S
Mg441       O452   2.293       .  S
O442       Mg484   2.158       .  S
O442       Mg467   2.123       .  S
O442        C463   1.237       .  S
O443        C474   1.270       .  A
O443       Mg467   2.293       .  S
C444        C645   1.492       .  S
C444        O446   1.269       .  A
C444        O458   1.276       .  A
O445        C473   1.267       .  A
O445       Mg447   2.286       .  S
O446       Mg478   2.260       .  S
Mg447       O453   2.108       .  S
Mg447       O461   2.231       .  S
Mg447       O449   2.261       .  S
C448        C869   1.487       .  S
C448        O486   1.270       .  A
C448        O454   1.274       .  A
O449        C456   1.267       .  A
H450        C463   1.081       .  S
C451        O465   1.235       .  S
C451        O466   1.269       .  A
C451        H476   1.082       .  S
O452        C475   1.270       .  A
O453       Mg467   2.140       .  S
O454       Mg484   2.301       .  S
C455        C690   1.489       .  S
C455        O468   1.275       .  A
C455        O460   1.272       .  A
C456       C1090   1.472       .  S
C456        O483   1.271       .  A
Mg457       O464   2.122       .  S
Mg457       O465   2.150       .  S
Mg457       O458   2.301       .  S
Mg457       O459   2.293       .  S
Mg457       O486   2.220       .  S
O459        C463   1.270       .  A
O460       Mg467   2.269       .  S
O461        C480   1.269       .  A
O462        C482   1.272       .  A
O462       Mg478   2.284       .  S
O464       Mg478   2.149       .  S
O464        C475   1.236       .  S
O465       Mg484   2.141       .  S
O466       Mg478   2.296       .  S
Mg467       O483   2.245       .  S
O468       Mg484   2.287       .  S
H469        C474   1.083       .  S
O470       Mg478   2.118       .  S
O470        C473   1.235       .  S
H471        C473   1.082       .  S
H472        C475   1.082       .  S
O477       Mg484   2.287       .  S
C480        C677   1.483       .  S
C480        O485   1.269       .  A
O481        C482   1.269       .  A
C482        C658   1.463       .  S
C487        N488   1.348       .  A
C487        N492   1.350       .  A
C487        C626   1.463       .  S
N488        C489   1.354       .  A
C489        N490   1.356       .  A
N490        C491   1.357       .  A
C491        N492   1.357       .  A
C491        C674   1.474       .  S
C493        N494   1.352       .  A
C493        N498   1.354       .  A
C493        C946   1.461       .  S
N494        C495   1.354       .  A
C495        N496   1.361       .  A
N496        C497   1.360       .  A
C497        N498   1.355       .  A
C497        C642   1.486       .  S
C499        N500   1.353       .  A
C499        N504   1.356       .  A
C499       C1173   1.468       .  S
N500        C501   1.356       .  A
C501        N502   1.355       .  A
N502        C503   1.357       .  A
C503        N504   1.357       .  A
C503        C693   1.486       .  S
O505       Mg507   2.104       .  S
O505       Mg513   2.137       .  S
O505        C540   1.235       .  S
C506        O519   1.236       .  S
C506        O543   1.270       .  A
C506        H545   1.083       .  S
Mg507       O536   2.142       .  S
Mg507       O551   2.287       .  S
Mg507       O547   2.241       .  S
Mg507       O518   2.299   1_545  S
O508       Mg550   2.151       .  S
O508       Mg533   2.105       .  S
O508        C529   1.234       .  S
O509        C540   1.267       .  A
O509       Mg533   2.282       .  S
C510        C629   1.463       .  S
C510        O512   1.269       .  A
C510        O524   1.269       .  A
O511        C539   1.272       .  A
O511       Mg513   2.301       .  S
O512       Mg544   2.249   1_565  S
Mg513       O519   2.126       .  S
Mg513       O527   2.248       .  S
Mg513       O515   2.289       .  S
C514        C613   1.474       .  S
C514        O552   1.268       .  A
C514        O520   1.274       .  A
O515        C522   1.273       .  A
H516        C529   1.082       .  S
C517        O531   1.238       .  S
C517        O532   1.274       .  A
C517        H542   1.085       .  S
O518        C541   1.269       .  A
O519       Mg533   2.148       .  S
O520       Mg550   2.293   1_565  S
C521        C981   1.478       .  S
C521        O534   1.271       .  A
C521        O526   1.270       .  A
C522        C597   1.471       .  S
C522        O549   1.268       .  A
Mg523       O530   2.123       .  S
Mg523       O531   2.149   1_565  S
Mg523       O524   2.262       .  S
Mg523       O525   2.284       .  S
Mg523       O552   2.238       .  S
O525        C529   1.266   1_565  A
O526       Mg533   2.244       .  S
O527        C546   1.269       .  A
O528        C548   1.273       .  A
O528       Mg544   2.313   1_565  S
O530       Mg544   2.139   1_565  S
O530        C541   1.235       .  S
O531       Mg550   2.142       .  S
O532       Mg544   2.313       .  S
Mg533       O549   2.234       .  S
O534       Mg550   2.268       .  S
H535        C540   1.082       .  S
O536       Mg544   2.131       .  S
O536        C539   1.238       .  S
H537        C539   1.082       .  S
H538        C541   1.082       .  S
O543       Mg550   2.292       .  S
C546        C709   1.472       .  S
C546        O551   1.274       .  A
O547        C548   1.271   1_545  A
C548        C578   1.488       .  S
C553        N554   1.352       .  A
C553        N558   1.358       .  A
C553        C661   1.478       .  S
N554        C555   1.355       .  A
C555        N556   1.353       .  A
N556        C557   1.351       .  A
C557        N558   1.355       .  A
C557        C610   1.466       .  S
C559        N560   1.354       .  A
C559        N564   1.354       .  A
C559       C1026   1.471       .  S
N560        C561   1.357       .  A
C561        N562   1.352       .  A
C561        C594   1.464       .  S
N562        C563   1.354       .  A
C563        N564   1.357       .  A
C563        C571   1.452       .  S
C565        N566   1.353       .  A
C565        N570   1.352       .  A
C565        C738   1.461       .  S
N566        C567   1.354       .  A
C567        N568   1.359       .  A
C567        C581   1.474       .  S
N568        C569   1.361       .  A
C569        N570   1.356       .  A
C571        N572   1.352       .  A
C571        N576   1.356       .  A
N572        C573   1.352       .  A
C573        N574   1.352       .  A
N574        C575   1.353       .  A
C575        N576   1.355       .  A
C577        H584   1.083   1_565  S
C577        C578   1.407       .  A
C577        C582   1.404       .  A
C578        C579   1.425       .  A
C579        C580   1.407       .  A
C579        C586   1.521       .  S
C580        H585   1.083       .  S
C580        C581   1.400       .  A
C581        C582   1.415       .  A
C582        C583   1.521       .  S
C583        F587   1.385   1_565  S
C583        F588   1.383       .  S
C583        F589   1.382       .  S
C586        F590   1.383       .  S
C586        F591   1.382       .  S
C586        F592   1.385       .  S
C593        H600   1.084       .  S
C593        C594   1.400       .  A
C593        C598   1.399       .  A
C594        C595   1.414       .  A
C595        C596   1.403       .  A
C595        C602   1.519       .  S
C596        H601   1.083       .  S
C596        C597   1.405       .  A
C597        C598   1.416       .  A
C598        C599   1.518       .  S
C599        F603   1.385       .  S
C599        F604   1.382       .  S
C599        F605   1.384       .  S
C602        F606   1.383       .  S
C602        F607   1.383       .  S
C602        F608   1.385       .  S
C609        H616   1.083       .  S
C609        C610   1.401       .  A
C609        C614   1.403       .  A
C610        C611   1.415       .  A
C611        C612   1.402       .  A
C611        C618   1.521       .  S
C612        H617   1.083       .  S
C612        C613   1.404       .  A
C613        C614   1.418       .  A
C614        C615   1.520       .  S
C615        F619   1.385       .  S
C615        F620   1.382       .  S
C615        F621   1.384       .  S
C618        F622   1.384       .  S
C618        F623   1.383       .  S
C618        F624   1.384       .  S
C625        H632   1.084       .  S
C625        C626   1.401       .  A
C625        C630   1.400       .  A
C626        C627   1.413       .  A
C627        C628   1.402       .  A
C627        C634   1.518       .  S
C628        H633   1.083       .  S
C628        C629   1.402       .  A
C629        C630   1.415       .  A
C630        C631   1.520       .  S
C631        F635   1.385       .  S
C631        F636   1.383       .  S
C631        F637   1.382       .  S
C634        F638   1.384       .  S
C634        F639   1.382       .  S
C634        F640   1.385       .  S
C641        H648   1.083       .  S
C641        C642   1.404       .  A
C641        C646   1.408       .  A
C642        C643   1.419       .  A
C643        C644   1.403       .  A
C643        C650   1.519       .  S
C644        H649   1.083       .  S
C644        C645   1.406       .  A
C645        C646   1.423       .  A
C646        C647   1.517       .  S
C647        F651   1.385       .  S
C647        F652   1.384       .  S
C647        F653   1.380       .  S
C650        F654   1.384       .  S
C650        F655   1.382       .  S
C650        F656   1.385       .  S
C657        H664   1.083       .  S
C657        C658   1.399       .  A
C657        C662   1.407       .  A
C658        C659   1.413       .  A
C659        C660   1.398       .  A
C659        C666   1.520       .  S
C660        H665   1.083       .  S
C660        C661   1.402       .  A
C661        C662   1.423       .  A
C662        C663   1.520       .  S
C663        F667   1.385       .  S
C663        F668   1.383       .  S
C663        F669   1.383       .  S
C666        F670   1.383       .  S
C666        F671   1.380       .  S
C666        F672   1.385       .  S
C673        H680   1.083       .  S
C673        C674   1.402       .  A
C673        C678   1.399       .  A
C674        C675   1.416       .  A
C675        C676   1.404       .  A
C675        C682   1.521       .  S
C676        H681   1.082       .  S
C676        C677   1.409       .  A
C677        C678   1.423       .  A
C678        C679   1.524       .  S
C679        F683   1.385       .  S
C679        F684   1.384       .  S
C679        F685   1.383       .  S
C682        F686   1.384       .  S
C682        F687   1.383       .  S
C682        F688   1.385       .  S
C689        H696   1.083       .  S
C689        C690   1.409       .  A
C689        C694   1.404       .  A
C690        C691   1.416       .  A
C691        C692   1.404       .  A
C691        C698   1.514       .  S
C692        H697   1.083       .  S
C692        C693   1.407       .  A
C693        C694   1.419       .  A
C694        C695   1.521       .  S
C695        F699   1.385       .  S
C695        F700   1.384       .  S
C695        F701   1.382       .  S
C698        F702   1.384       .  S
C698        F703   1.381       .  S
C698        F704   1.385       .  S
C705        H712   1.083       .  S
C705        C706   1.400       .  A
C705        C710   1.406       .  A
C706        C707   1.414       .  A
C707        C708   1.402       .  A
C707        C714   1.518       .  S
C708        H713   1.084       .  S
C708        C709   1.402       .  A
C709        C710   1.418       .  A
C710        C711   1.520       .  S
C711        F715   1.384       .  S
C711        F716   1.383       .  S
C711        F717   1.383       .  S
C714        F718   1.383       .  S
C714        F719   1.383       .  S
C714        F720   1.384       .  S
C721        H728   1.083       .  S
C721        C722   1.408       .  A
C721        C726   1.407       .  A
C722        C723   1.421       .  A
C723        C724   1.404       .  A
C723        C730   1.519   1_556  S
C724        H729   1.084       .  S
C724        C725   1.400       .  A
C725        C726   1.412       .  A
C726        C727   1.518       .  S
C727        F731   1.385       .  S
C727        F732   1.383       .  S
C727        F733   1.383       .  S
C730        F734   1.383       .  S
C730        F735   1.384       .  S
C730        F736   1.385       .  S
C737        H744   1.084       .  S
C737        C738   1.400       .  A
C737        C742   1.402       .  A
C738        C739   1.412       .  A
C739        C740   1.402       .  A
C739        C746   1.517       .  S
C740        H745   1.084       .  S
C740        C741   1.401       .  A
C741        C742   1.415       .  A
C742        C743   1.520       .  S
C743        F747   1.384       .  S
C743        F748   1.384       .  S
C743        F749   1.382       .  S
C746        F750   1.384       .  S
C746        F751   1.382       .  S
C746        F752   1.384       .  S
C753        H760   1.083       .  S
C753        C754   1.401       .  A
C753        C758   1.410       .  A
C754        C755   1.416       .  A
C755        C756   1.405       .  A
C755        C762   1.521       .  S
C756        H761   1.083       .  S
C756        C757   1.408       .  A
C757        C758   1.426       .  A
C758        C759   1.519       .  S
C759        F763   1.385       .  S
C759        F764   1.383       .  S
C759        F765   1.383       .  S
C762        F766   1.384       .  S
C762        F767   1.382       .  S
C762        F768   1.385       .  S
C769        H776   1.084       .  S
C769        C770   1.405       .  A
C769        C774   1.403       .  A
C770        C771   1.421       .  A
C771        C772   1.403       .  A
C771        C778   1.520       .  S
C772        H777   1.084       .  S
C772        C773   1.398       .  A
C773        C774   1.412       .  A
C774        C775   1.518       .  S
C775        F779   1.385       .  S
C775        F780   1.384       .  S
C775        F781   1.382       .  S
C778        F782   1.383       .  S
C778        F783   1.382       .  S
C778        F784   1.384       .  S
C785        H792   1.083       .  S
C785        C786   1.403       .  A
C785        C790   1.406       .  A
C786        C787   1.416       .  A
C787        C788   1.403       .  A
C787        C794   1.521       .  S
C788        H793   1.082   1_655  S
C788        C789   1.409       .  A
C789        C790   1.425       .  A
C790        C791   1.521       .  S
C791        F795   1.385       .  S
C791        F796   1.384       .  S
C791        F797   1.383       .  S
C794        F798   1.384       .  S
C794        F799   1.382       .  S
C794        F800   1.385   1_655  S
C801        H808   1.082       .  S
C801        C802   1.411       .  A
C801        C806   1.406       .  A
C802        C803   1.430       .  A
C803        C804   1.406       .  A
C803        C810   1.520       .  S
C804        H809   1.083       .  S
C804        C805   1.398       .  A
C805        C806   1.414       .  A
C806        C807   1.520       .  S
C807        F811   1.385       .  S
C807        F812   1.384       .  S
C807        F813   1.382       .  S
C810        F814   1.384       .  S
C810        F815   1.383       .  S
C810        F816   1.385       .  S
C817        H824   1.083       .  S
C817        C818   1.407       .  A
C817        C822   1.407       .  A
C818        C819   1.425       .  A
C819        C820   1.403       .  A
C819        C826   1.523       .  S
C820        H825   1.083       .  S
C820        C821   1.403       .  A
C821        C822   1.420       .  A
C822        C823   1.521       .  S
C823        F827   1.385       .  S
C823        F828   1.383       .  S
C823        F829   1.383       .  S
C826        F830   1.383       .  S
C826        F831   1.383       .  S
C826        F832   1.385       .  S
C833        H840   1.084       .  S
C833        C834   1.394       .  A
C833        C838   1.399       .  A
C834        C835   1.405       .  A
C835        C836   1.399       .  A
C835        C842   1.518       .  S
C836        H841   1.083       .  S
C836        C837   1.410       .  A
C837        C838   1.427       .  A
C838        C839   1.523       .  S
C839        F843   1.385       .  S
C839        F844   1.383       .  S
C839        F845   1.384       .  S
C842        F846   1.383       .  S
C842        F847   1.383       .  S
C842        F848   1.385       .  S
C849        H856   1.082       .  S
C849        C850   1.407       .  A
C849        C854   1.398       .  A
C850        C851   1.431       .  A
C851        C852   1.411       .  A
C851        C858   1.522       .  S
C852        H857   1.083       .  S
C852        C853   1.397       .  A
C853        C854   1.410       .  A
C854        C855   1.521       .  S
C855        F859   1.385       .  S
C855        F860   1.383       .  S
C855        F861   1.382       .  S
C858        F862   1.383       .  S
C858        F863   1.383       .  S
C858        F864   1.385       .  S
C865        H872   1.084       .  S
C865        C866   1.397       .  A
C865        C870   1.406       .  A
C866        C867   1.409       .  A
C867        C868   1.397       .  A
C867        C874   1.520       .  S
C868        H873   1.082       .  S
C868        C869   1.409       .  A
C869        C870   1.424       .  A
C870        C871   1.516       .  S
C871        F875   1.385       .  S
C871        F876   1.379       .  S
C871        F877   1.383       .  S
C874        F878   1.380       .  S
C874        F879   1.383       .  S
C874        F880   1.385       .  S
C881        H888   1.084       .  S
C881        C882   1.402       .  A
C881        C886   1.403       .  A
C882        C883   1.415       .  A
C883        C884   1.404       .  A
C883        C890   1.518       .  S
C884        H889   1.084       .  S
C884        C885   1.401       .  A
C885        C886   1.415       .  A
C886        C887   1.519       .  S
C887        F891   1.385       .  S
C887        F892   1.383       .  S
C887        F893   1.382       .  S
C890        F894   1.383       .  S
C890        F895   1.382       .  S
C890        F896   1.385       .  S
C897        H904   1.088       .  S
C897        C898   1.396       .  A
C897        C902   1.400       .  A
C898        C899   1.414       .  A
C899        C900   1.402       .  A
C899        C906   1.519       .  S
C900        H905   1.087   1_556  S
C900        C901   1.403       .  A
C901        C902   1.418       .  A
C902        C903   1.517       .  S
C903        F907   1.385       .  S
C903        F908   1.377       .  S
C903        F909   1.383       .  S
C906        F910   1.383       .  S
C906        F911   1.382       .  S
C906        F912   1.385   1_556  S
C913        H920   1.083       .  S
C913        C914   1.401       .  A
C913        C918   1.398       .  A
C914        C915   1.416       .  A
C915        C916   1.400       .  A
C915        C922   1.520       .  S
C916        H921   1.083       .  S
C916        C917   1.398       .  A
C917        C918   1.412       .  A
C918        C919   1.519       .  S
C919        F923   1.385       .  S
C919        F924   1.383       .  S
C919        F925   1.382       .  S
C922        F926   1.383       .  S
C922        F927   1.383       .  S
C922        F928   1.385       .  S
C929        H936   1.083       .  S
C929        C930   1.404       .  A
C929        C934   1.402       .  A
C930        C931   1.419       .  A
C931        C932   1.402       .  A
C931        C938   1.519       .  S
C932        H937   1.084       .  S
C932        C933   1.400       .  A
C933        C934   1.415       .  A
C934        C935   1.521       .  S
C935        F939   1.385       .  S
C935        F940   1.384       .  S
C935        F941   1.382       .  S
C938        F942   1.383       .  S
C938        F943   1.384       .  S
C938        F944   1.385       .  S
C945        H952   1.083       .  S
C945        C946   1.398       .  A
C945        C950   1.403       .  A
C946        C947   1.412       .  A
C947        C948   1.401       .  A
C947        C954   1.518       .  S
C948        H953   1.084       .  S
C948        C949   1.403       .  A
C949        C950   1.417       .  A
C950        C951   1.515       .  S
C951        F955   1.385       .  S
C951        F956   1.382       .  S
C951        F957   1.382       .  S
C954        F958   1.383       .  S
C954        F959   1.382       .  S
C954        F960   1.385       .  S
C961        H968   1.083       .  S
C961        C962   1.405       .  A
C961        C966   1.405       .  A
C962        C963   1.415       .  A
C963        C964   1.397       .  A
C963        C970   1.519       .  S
C964        H969   1.083       .  S
C964        C965   1.400       .  A
C965        C966   1.416       .  A
C966        C967   1.519       .  S
C967        F971   1.385       .  S
C967        F972   1.383       .  S
C967        F973   1.382       .  S
C970        F974   1.383       .  S
C970        F975   1.383       .  S
C970        F976   1.384       .  S
C977        H984   1.083       .  S
C977        C978   1.398       .  A
C977        C982   1.406       .  A
C978        C979   1.409       .  A
C979        C980   1.398       .  A
C979        C986   1.520       .  S
C980        H985   1.083       .  S
C980        C981   1.407       .  A
C981        C982   1.422       .  A
C982        C983   1.520       .  S
C983        F987   1.385       .  S
C983        F988   1.384       .  S
C983        F989   1.383       .  S
C986        F990   1.383       .  S
C986        F991   1.382       .  S
C986        F992   1.385       .  S
C993       H1000   1.083       .  S
C993        C994   1.402       .  A
C993        C998   1.407       .  A
C994        C995   1.417       .  A
C995        C996   1.404       .  A
C995       C1002   1.522       .  S
C996       H1001   1.081       .  S
C996        C997   1.410       .  A
C997        C998   1.427       .  A
C998        C999   1.523   1_565  S
C999       F1003   1.385       .  S
C999       F1004   1.383       .  S
C999       F1005   1.383       .  S
C1002      F1006   1.384       .  S
C1002      F1007   1.383       .  S
C1002      F1008   1.385       .  S
C1009      H1016   1.081       .  S
C1009      C1010   1.411       .  A
C1009      C1014   1.400       .  A
C1010      C1011   1.427       .  A
C1011      C1012   1.407       .  A
C1011      C1018   1.522       .  S
C1012      H1017   1.083       .  S
C1012      C1013   1.400       .  A
C1013      C1014   1.411       .  A
C1014      C1015   1.522       .  S
C1015      F1019   1.385       .  S
C1015      F1020   1.384       .  S
C1015      F1021   1.382       .  S
C1018      F1022   1.385       .  S
C1018      F1023   1.383       .  S
C1018      F1024   1.383       .  S
C1025      H1032   1.084       .  S
C1025      C1026   1.402       .  A
C1025      C1030   1.403       .  A
C1026      C1027   1.414       .  A
C1027      C1028   1.404       .  A
C1027      C1034   1.519       .  S
C1028      H1033   1.083       .  S
C1028      C1029   1.406       .  A
C1029      C1030   1.418       .  A
C1030      C1031   1.519       .  S
C1031      F1035   1.385       .  S
C1031      F1036   1.384       .  S
C1031      F1037   1.382       .  S
C1034      F1038   1.384       .  S
C1034      F1039   1.382       .  S
C1034      F1040   1.385       .  S
C1041      H1048   1.084       .  S
C1041      C1042   1.399       .  A
C1041      C1046   1.402       .  A
C1042      C1043   1.414       .  A
C1043      C1044   1.399       .  A
C1043      C1050   1.523       .  S
C1044      H1049   1.082       .  S
C1044      C1045   1.409       .  A
C1045      C1046   1.426       .  A
C1046      C1047   1.522       .  S
C1047      F1051   1.385       .  S
C1047      F1052   1.383       .  S
C1047      F1053   1.383       .  S
C1050      F1054   1.384       .  S
C1050      F1055   1.382       .  S
C1050      F1056   1.385       .  S
C1057      H1064   1.084       .  S
C1057      C1058   1.402       .  A
C1057      C1062   1.402       .  A
C1058      C1059   1.418       .  A
C1059      C1060   1.399       .  A
C1059      C1066   1.521       .  S
C1060      H1065   1.084       .  S
C1060      C1061   1.398       .  A
C1061      C1062   1.415       .  A
C1062      C1063   1.520       .  S
C1063      F1067   1.385       .  S
C1063      F1068   1.383       .  S
C1063      F1069   1.383       .  S
C1066      F1070   1.383       .  S
C1066      F1071   1.383       .  S
C1066      F1072   1.385       .  S
C1073      H1080   1.084       .  S
C1073      C1074   1.400       .  A
C1073      C1078   1.393       .  A
C1074      C1075   1.421       .  A
C1075      C1076   1.403       .  A
C1075      C1082   1.519       .  S
C1076      H1081   1.084       .  S
C1076      C1077   1.398       .  A
C1077      C1078   1.413       .  A
C1078      C1079   1.520       .  S
C1079      F1083   1.385       .  S
C1079      F1084   1.382       .  S
C1079      F1085   1.379       .  S
C1082      F1086   1.383       .  S
C1082      F1087   1.384       .  S
C1082      F1088   1.385       .  S
C1089      H1096   1.083       .  S
C1089      C1090   1.403       .  A
C1089      C1094   1.401       .  A
C1090      C1091   1.421       .  A
C1091      C1092   1.400       .  A
C1091      C1098   1.522       .  S
C1092      H1097   1.083       .  S
C1092      C1093   1.399       .  A
C1093      C1094   1.414       .  A
C1094      C1095   1.520       .  S
C1095      F1099   1.385       .  S
C1095      F1100   1.384       .  S
C1095      F1101   1.383       .  S
C1098      F1102   1.383       .  S
C1098      F1103   1.382       .  S
C1098      F1104   1.385       .  S
C1105      H1112   1.083       .  S
C1105      C1106   1.404       .  A
C1105      C1110   1.401       .  A
C1106      C1107   1.418       .  A
C1107      C1108   1.401       .  A
C1107      C1114   1.519       .  S
C1108      H1113   1.084       .  S
C1108      C1109   1.397       .  A
C1109      C1110   1.410       .  A
C1110      C1111   1.519       .  S
C1111      F1115   1.385       .  S
C1111      F1116   1.383       .  S
C1111      F1117   1.383       .  S
C1114      F1118   1.383       .  S
C1114      F1119   1.382       .  S
C1114      F1120   1.385       .  S
C1121      H1128   1.083       .  S
C1121      C1122   1.406       .  A
C1121      C1126   1.405       .  A
C1122      C1123   1.420       .  A
C1123      C1124   1.408       .  A
C1123      C1130   1.520   1_655  S
C1124      H1129   1.084       .  S
C1124      C1125   1.404       .  A
C1125      C1126   1.414       .  A
C1126      C1127   1.519       .  S
C1127      F1131   1.384       .  S
C1127      F1132   1.384       .  S
C1127      F1133   1.382       .  S
C1130      F1134   1.382       .  S
C1130      F1135   1.383       .  S
C1130      F1136   1.385       .  S
C1137      H1144   1.083       .  S
C1137      C1138   1.403       .  A
C1137      C1142   1.407       .  A
C1138      C1139   1.413       .  A
C1139      C1140   1.403       .  A
C1139      C1146   1.518       .  S
C1140      H1145   1.083       .  S
C1140      C1141   1.403       .  A
C1141      C1142   1.416       .  A
C1142      C1143   1.519       .  S
C1143      F1147   1.384       .  S
C1143      F1148   1.384       .  S
C1143      F1149   1.382       .  S
C1146      F1150   1.383       .  S
C1146      F1151   1.382       .  S
C1146      F1152   1.385       .  S
C1153      H1160   1.083       .  S
C1153      C1154   1.399       .  A
C1153      C1158   1.406       .  A
C1154      C1155   1.416       .  A
C1155      C1156   1.403       .  A
C1155      C1162   1.518       .  S
C1156      H1161   1.084       .  S
C1156      C1157   1.406       .  A
C1157      C1158   1.425       .  A
C1158      C1159   1.521       .  S
C1159      F1163   1.385       .  S
C1159      F1164   1.383       .  S
C1159      F1165   1.383       .  S
C1162      F1166   1.384       .  S
C1162      F1167   1.383       .  S
C1162      F1168   1.385       .  S
C1169      H1176   1.083       .  S
C1169      C1170   1.403       .  A
C1169      C1174   1.405       .  A
C1170      C1171   1.414       .  A
C1171      C1172   1.402       .  A
C1171      C1178   1.518       .  S
C1172      H1177   1.083       .  S
C1172      C1173   1.401       .  A
C1173      C1174   1.413       .  A
C1174      C1175   1.517       .  S
C1175      F1179   1.385       .  S
C1175      F1180   1.384       .  S
C1175      F1181   1.382       .  S
C1178      F1182   1.384       .  S
C1178      F1183   1.382       .  S
C1178      F1184   1.384       .  S
C1185      H1192   1.084       .  S
C1185      C1186   1.401       .  A
C1185      C1190   1.404       .  A
C1186      C1187   1.411       .  A
C1187      C1188   1.399       .  A
C1187      C1194   1.519       .  S
C1188      H1193   1.083       .  S
C1188      C1189   1.403       .  A
C1189      C1190   1.416       .  A
C1190      C1191   1.519       .  S
C1191      F1195   1.385       .  S
C1191      F1196   1.382       .  S
C1191      F1197   1.384       .  S
C1194      F1198   1.384       .  S
C1194      F1199   1.382       .  S
C1194      F1200   1.385       .  S
C1201      H1208   1.084       .  S
C1201      C1202   1.400       .  A
C1201      C1206   1.402       .  A
C1202      C1203   1.413       .  A
C1203      C1204   1.405       .  A
C1203      C1210   1.518       .  S
C1204      H1209   1.083   1_565  S
C1204      C1205   1.404       .  A
C1205      C1206   1.414       .  A
C1206      C1207   1.517       .  S
C1207      F1211   1.385       .  S
C1207      F1212   1.383       .  S
C1207      F1213   1.382       .  S
C1210      F1214   1.383       .  S
C1210      F1215   1.382       .  S
C1210      F1216   1.385   1_565  S
C1217      H1224   1.083       .  S
C1217      C1218   1.405       .  A
C1217      C1222   1.402       .  A
C1218      C1219   1.415       .  A
C1219      C1220   1.401       .  A
C1219      C1226   1.518       .  S
C1220      H1225   1.084       .  S
C1220      C1221   1.402       .  A
C1221      C1222   1.412       .  A
C1222      C1223   1.519       .  S
C1223      F1227   1.385   1_655  S
C1223      F1228   1.384       .  S
C1223      F1229   1.382       .  S
C1226      F1230   1.384       .  S
C1226      F1231   1.382       .  S
C1226      F1232   1.385       .  S
C1233      H1240   1.083       .  S
C1233      C1234   1.402       .  A
C1233      C1238   1.402       .  A
C1234      C1235   1.420       .  A
C1235      C1236   1.401       .  A
C1235      C1242   1.522   1_556  S
C1236      H1241   1.083       .  S
C1236      C1237   1.399       .  A
C1237      C1238   1.416       .  A
C1238      C1239   1.519       .  S
C1239      F1243   1.385       .  S
C1239      F1244   1.383       .  S
C1239      F1245   1.383       .  S
C1242      F1246   1.384       .  S
C1242      F1247   1.383       .  S
C1242      F1248   1.385       .  S
C1249      H1256   1.082       .  S
C1249      C1250   1.409       .  A
C1249      C1254   1.397       .  A
C1250      C1251   1.429       .  A
C1251      C1252   1.411       .  A
C1251      C1258   1.519       .  S
C1252      H1257   1.084       .  S
C1252      C1253   1.398       .  A
C1253      C1254   1.413       .  A
C1254      C1255   1.523       .  S
C1255      F1259   1.385       .  S
C1255      F1260   1.382       .  S
C1255      F1261   1.384   1_565  S
C1258      F1262   1.382       .  S
C1258      F1263   1.384       .  S
C1258      F1264   1.385       .  S
C1265      H1272   1.083       .  S
C1265      C1266   1.396       .  A
C1265      C1270   1.403       .  A
C1266      C1267   1.416       .  A
C1267      C1268   1.405       .  A
C1267      C1274   1.521       .  S
C1268      H1273   1.083       .  S
C1268      C1269   1.408       .  A
C1269      C1270   1.423       .  A
C1270      C1271   1.509       .  S
C1271      F1275   1.385       .  S
C1271      F1276   1.380       .  S
C1271      F1277   1.384       .  S
C1274      F1278   1.383       .  S
C1274      F1279   1.381       .  S
C1274      F1280   1.385       .  S
C1281      H1288   1.083       .  S
C1281      C1282   1.403       .  A
C1281      C1286   1.401       .  A
C1282      C1283   1.415       .  A
C1283      C1284   1.403       .  A
C1283      C1290   1.519       .  S
C1284      H1289   1.084   1_556  S
C1284      C1285   1.402       .  A
C1285      C1286   1.412       .  A
C1286      C1287   1.519       .  S
C1287      F1291   1.385       .  S
C1287      F1292   1.383       .  S
C1287      F1293   1.382       .  S
C1290      F1294   1.383       .  S
C1290      F1295   1.382       .  S
C1290      F1296   1.385   1_556  S
C1297      H1304   1.084       .  S
C1297      C1298   1.398       .  A
C1297      C1302   1.402       .  A
C1298      C1299   1.411       .  A
C1299      C1300   1.400       .  A
C1299      C1306   1.518       .  S
C1300      H1305   1.084       .  S
C1300      C1301   1.403       .  A
C1301      C1302   1.423       .  A
C1302      C1303   1.522       .  S
C1303      F1307   1.385       .  S
C1303      F1308   1.383       .  S
C1303      F1309   1.381       .  S
C1306      F1310   1.384       .  S
C1306      F1311   1.381       .  S
C1306      F1312   1.384       .  S
C1313      H1320   1.083       .  S
C1313      C1314   1.408       .  A
C1313      C1318   1.399       .  A
C1314      C1315   1.420       .  A
C1315      C1316   1.400       .  A
C1315      C1322   1.508   1_655  S
C1316      H1321   1.084       .  S
C1316      C1317   1.393       .  A
C1317      C1318   1.407       .  A
C1318      C1319   1.518       .  S
C1319      F1323   1.384       .  S
C1319      F1324   1.383       .  S
C1319      F1325   1.383       .  S
C1322      F1326   1.381       .  S
C1322      F1327   1.382       .  S
C1322      F1328   1.385       .  S
C1329      H1336   1.084       .  S
C1329      C1330   1.401       .  A
C1329      C1334   1.402       .  A
C1330      C1331   1.416       .  A
C1331      C1332   1.405       .  A
C1331      C1338   1.520       .  S
C1332      H1337   1.083       .  S
C1332      C1333   1.405       .  A
C1333      C1334   1.420       .  A
C1334      C1335   1.520       .  S
C1335      F1339   1.385       .  S
C1335      F1340   1.383       .  S
C1335      F1341   1.384       .  S
C1338      F1342   1.384       .  S
C1338      F1343   1.383       .  S
C1338      F1344   1.384       .  S
