geometry optimzed in LAMMPS
_audit_creation_date              2020-11-30 
_audit_creation_method            'lammps2cif' 
_symmetry_space_group_name_H-M    'P1' 
_symmetry_Int_Tables_number       1 
_symmetry_cell_setting            triclinic 
loop_ 
_symmetry_equiv_pos_as_xyz 
  x,y,z 
_cell_length_a                    20.02630596 
_cell_length_b                    28.80046169818808 
_cell_length_c                    26.55529238988541 
_cell_angle_alpha                 89.68057968115069 
_cell_angle_beta                  88.63607522671441 
_cell_angle_gamma                 89.7030595389074 
loop_ 
_atom_site_label 
_atom_site_type_symbol 
_atom_site_fract_x 
_atom_site_fract_y 
_atom_site_fract_z 
_atom_site_charge 
C1          C  0.08631626  0.98771658  0.26615650     0.30800
C2          C  0.42954753  0.98816487  0.26767736     0.30800
C3          C  0.04416124  0.97947329  0.31611436    -0.05400
C4          C  0.04439265  0.03048825  0.24288966    -0.06200
C5          C  0.04770109  0.94908942  0.23324226    -0.06100
C6          C  0.47001289  0.98203590  0.31802062    -0.05400
C7          C  0.47041631  0.03087863  0.24388309    -0.06200
C8          C  0.47154769  0.94941973  0.23549755    -0.06100
C9          C  0.45121293  0.97079674  0.36755621    -0.31500
N10         N  0.00965415  0.95748954  0.39434479     0.15000
C11         C  0.06349048  0.96411587  0.36337111    -0.31500
H12         H  0.11331528  0.95473329  0.37369556     0.17000
C13         C  0.45272664  0.05929717  0.20304574    -0.30400
N14         N  0.50688797  0.07926969  0.18066013     0.13800
C15         C  0.06172932  0.05936332  0.20162095    -0.30400
C16         C  0.45521964  0.91575889  0.19921927    -0.30700
N17         N  0.51167138  0.89501725  0.17916067     0.14300
H18         H  0.40537589  0.90784650  0.18734429     0.16900
C19         C  0.06838980  0.91608016  0.19736057    -0.30700
H20         H  0.11973008  0.90908910  0.18636822     0.16900
H21         H  0.11123574  0.06279102  0.18527429     0.16900
H22         H  0.40226237  0.96118645  0.38115071     0.17000
H23         H  0.40446328  0.06040826  0.18606761     0.16900
C24         C  0.18008012  0.99101511  0.27379425     0.30800
C25         C  0.33547408  0.99156136  0.27337205     0.30800
C26         C  0.21987216  0.99966185  0.32592264    -0.05400
C27         C  0.22207475  0.94776012  0.25688654    -0.06200
C28         C  0.22061227  0.02973730  0.24429218    -0.06100
C29         C  0.29394045  0.00021441  0.32508852    -0.05400
C30         C  0.29532426  0.94795260  0.25695581    -0.06200
C31         C  0.29519895  0.03029902  0.24413271    -0.06100
C32         C  0.31162603  0.01852749  0.37142391    -0.31500
N33         N  0.25736920  0.02340151  0.40249384     0.15000
C34         C  0.20212076  0.01587636  0.37436680    -0.31500
H35         H  0.15224720  0.02378245  0.38796095     0.17000
C36         C  0.31383205  0.90230526  0.26332485    -0.30400
N37         N  0.25914222  0.87490409  0.26473623     0.13800
C38         C  0.20414654  0.90194442  0.26275785    -0.30400
C39         C  0.31088528  0.07715930  0.24753400    -0.30700
N40         N  0.25552224  0.10369294  0.24739393     0.14300
H41         H  0.35812021  0.09048053  0.25963694     0.16900
C42         C  0.20209213  0.07595690  0.24777505    -0.30700
H43         H  0.15322001  0.08836818  0.25950101     0.16900
H44         H  0.15402226  0.88918848  0.26946590     0.16900
H45         H  0.36045859  0.03035245  0.38139053     0.17000
H46         H  0.36395149  0.89053962  0.27042936     0.16900
C47         C  0.08890841  0.99248108  0.57631841     0.30800
C48         C  0.93338741  0.99410410  0.57789322     0.30800
C49         C  0.04834097  0.98266355  0.52500195    -0.05400
C50         C  0.04783142  0.95604349  0.60746752    -0.06200
C51         C  0.04850186  0.03699911  0.59212165    -0.06100
C52         C  0.97426438  0.98340754  0.52608429    -0.05400
C53         C  0.97366852  0.95597465  0.60870748    -0.06200
C54         C  0.97562723  0.03820394  0.59242735    -0.06100
C55         C  0.95584443  0.96685413  0.47897166    -0.31500
N56         N  0.01040649  0.95971342  0.44840154     0.15000
C57         C  0.06575766  0.96609702  0.47672559    -0.31500
H58         H  0.11556485  0.95775696  0.46324189     0.17000
C59         C  0.95814858  0.90875182  0.61232546    -0.30400
N60         N  0.01358504  0.88260705  0.61609986     0.13800
C61         C  0.06616032  0.91018365  0.60809429    -0.30400
C62         C  0.95903312  0.08458328  0.59892631    -0.30700
N63         N  0.01479360  0.10986979  0.60672095     0.14300
H64         H  0.40204560  0.09553346  0.60642026     0.16900
C65         C  0.06883602  0.08208370  0.59940737    -0.30700
H66         H  0.11952466  0.09453945  0.59708138     0.16900
H67         H  0.11337131  0.89712275  0.59415475     0.17300
H68         H  0.40666420  0.95538971  0.47362044     0.17000
H69         H  0.41434040  0.88951963  0.59763403     0.16900
C70         C  0.18229249  0.99251142  0.58401048     0.30800
C71         C  0.33739637  0.99304981  0.58525922     0.30800
C72         C  0.22470796  0.00175140  0.53457441    -0.05400
C73         C  0.22063970  0.02898448  0.61822500    -0.06200
C74         C  0.22298548  0.94854786  0.60646618    -0.06100
C75         C  0.29725721  0.00212890  0.53418715    -0.05400
C76         C  0.29442365  0.02952709  0.61911374    -0.06200
C77         C  0.29690801  0.94834921  0.60659428    -0.06100
C78         C  0.31444591  0.01807829  0.48525837    -0.31500
N79         N  0.25911741  0.02380485  0.45654666     0.15000
C80         C  0.20536172  0.01770279  0.48763453    -0.31500
H81         H  0.15551009  0.02718020  0.47741270     0.17000
C82         C  0.30919927  0.05711939  0.66092175    -0.30400
N83         N  0.25213170  0.07424243  0.68326607     0.13800
C84         C  0.19943811  0.05499917  0.65976193    -0.30400
C85         C  0.31320810  0.91795625  0.64702744    -0.30700
N86         N  0.25815659  0.89795622  0.66882935     0.14300
H87         H  0.36088950  0.91629496  0.66492792     0.16900
C88         C  0.20536623  0.92039294  0.64848533    -0.30700
H89         H  0.15736286  0.92066618  0.66767993     0.16900
H90         H  0.14845527  0.05798692  0.67369267     0.16900
H91         H  0.36352178  0.02768266  0.47185527     0.17000
H92         H  0.35791185  0.06128368  0.67682504     0.16900
O93         O  0.37322923  0.53821675  0.80740141    -0.80100
O94         O  0.11246255  0.55378680  0.94133919    -0.64800
O95         O  0.50596699  0.52091225  0.83647000    -1.11400
C96         C  0.96392422  0.37800255  0.93060247     1.06800
O97         O  0.14035977  0.48337644  0.93124174    -0.78000
O98         O  0.11008272  0.40800813  0.87603726    -0.65600
Ni99       Ni  0.45845043  0.56850301  0.80002772     1.34900
C100        C  0.07848327  0.40177345  0.83553606     0.85500
O101        O  0.11049065  0.58664245  0.84790561    -0.78500
O102        O  0.54043835  0.59737189  0.78348774    -0.88800
C103        C  0.13297879  0.51736245  0.96059285     0.85100
O104        O  0.44728045  0.61530265  0.85539443    -0.67000
O105        O  0.01946227  0.38860177  0.94891710    -0.86300
C106        C  0.97789705  0.61837281  0.89200550     0.85900
C107        C  0.10271824  0.60290219  0.80364929     1.07500
H108        H  0.99318805  0.49149705  0.94444107     0.39300
O109        O  0.02149840  0.48173511  0.91645845    -1.09000
O110        O  0.52531106  0.42778198  0.83010316    -0.65600
Ni111      Ni  0.46594320  0.46534728  0.86917835     1.26300
O112        O  0.00552639  0.58356977  0.91302531    -0.65800
O113        O  0.43657420  0.40438358  0.90325293    -0.78100
C114        C  0.37020376  0.49981227  0.83053666     0.85300
O115        O  0.40389015  0.46441442  0.81598016    -0.65300
Ni116      Ni  0.08191952  0.43597431  0.93950432     1.27400
Ni117      Ni  0.06484487  0.53725939  0.88394350     1.26100
H118        H  0.53725596  0.50917297  0.81121142     0.39800
O119        O  0.39288401  0.53844640  0.90369270    -0.80100
O120        O  0.17969345  0.54648083  0.03050300    -0.64800
O121        O  0.35639110  0.51185776  0.99958675    -1.11400
C122        C  0.26928305  0.36729366  0.93171530     1.06800
O123        O  0.14946677  0.47559399  0.03589751    -0.78000
O124        O  0.22941250  0.40060452  0.04729040    -0.65600
Ni125      Ni  0.40583949  0.56087909  0.96993916     1.34900
C126        C  0.28879058  0.40374195  0.06356353     0.85500
O127        O  0.29840762  0.58501627  0.05019210    -0.78500
O128        O  0.41025006  0.58637168  0.03573554    -0.88800
C129        C  0.14432050  0.51469430  0.01442738     0.85100
O130        O  0.34568605  0.61168498  0.95416334    -0.67000
O131        O  0.21087275  0.38002258  0.94600136    -0.86300
C132        C  0.28994766  0.60531080  0.93479076     0.85900
C133        C  0.35776575  0.59851838  0.06100631     1.07500
H134        H  0.24685252  0.48184160  0.94094986     0.39300
O135        O  0.25281452  0.47254585  0.97503675    -1.09000
O136        O  0.33513554  0.42626146  0.04094412    -0.65600
Ni137      Ni  0.34040152  0.44969664  0.97344794     1.26300
O138        O  0.25754582  0.56886275  0.94880604    -0.65800
O139        O  0.32108070  0.38872405  0.94604606    -0.78100
C140        C  0.36590661  0.50382208  0.88361325     0.85300
O141        O  0.34535644  0.46866778  0.90651643    -0.65300
Ni142      Ni  0.18232942  0.42883564  0.99259492     1.27400
Ni143      Ni  0.26986855  0.53118016  0.01233198     1.26100
H144        H  0.37645206  0.50619432  0.03183891     0.39800
C145        C  0.28426198  0.78900235  0.76174673     0.19500
C146        C  0.24470584  0.79377713  0.80644336    -0.18600
C147        C  0.24354241  0.75876456  0.84499281    -0.10900
C148        C  0.27972105  0.71640647  0.84028534     0.21700
C149        C  0.31815654  0.71133527  0.79533790    -0.20200
C150        C  0.32055062  0.74663665  0.75738707    -0.11100
C151        C  0.28935678  0.68353937  0.88582990    -0.15200
C152        C  0.26752137  0.63829820  0.89227684    -0.29100
C153        C  0.29191884  0.82685965  0.71991923    -0.03400
C154        C  0.25274882  0.86586450  0.71284292    -0.39900
H155        H  0.21608157  0.82524415  0.81268881     0.12900
H156        H  0.21485989  0.76528637  0.87931411     0.12500
H157        H  0.34905915  0.68066068  0.79037826     0.11900
H158        H  0.35227067  0.74091834  0.72439084     0.12200
H159        H  0.31737121  0.69819291  0.91627484     0.14900
H160        H  0.23534430  0.62395259  0.86416787     0.13700
H161        H  0.33125196  0.82091100  0.69179599     0.11400
H162        H  0.21015860  0.87052634  0.73835237     0.13400
C163        C  0.27433247  0.17895764  0.77560307     0.19500
C164        C  0.24423720  0.16954046  0.82317886    -0.18600
C165        C  0.23549773  0.20495059  0.85979754    -0.10900
C166        C  0.25663403  0.25108610  0.85055169     0.21700
C167        C  0.28732492  0.26023694  0.80313612    -0.20200
C168        C  0.29621445  0.22489157  0.76669359    -0.11100
C169        C  0.24295681  0.28901093  0.88963549    -0.15200
C170        C  0.28002451  0.32833952  0.89396244    -0.29100
C171        C  0.28533112  0.14229634  0.73482415    -0.03400
C172        C  0.24539613  0.10481418  0.72721181    -0.39900
H173        H  0.22788337  0.13469786  0.83241389     0.12900
H174        H  0.21201734  0.19615141  0.89572558     0.12500
H175        H  0.30312161  0.29507561  0.79340010     0.11900
H176        H  0.31945320  0.23381944  0.73071358     0.12200
H177        H  0.20245890  0.28340068  0.91688183     0.14900
H178        H  0.32378515  0.33192070  0.86937576     0.13700
H179        H  0.32513615  0.14869177  0.70719038     0.11400
H180        H  0.20160732  0.10062231  0.75167972     0.13400
C181        C  0.09133758  0.77947703  0.67868633     0.19500
C182        C  0.06278305  0.78348278  0.72729797    -0.18600
C183        C  0.08153624  0.75305046  0.76548197    -0.10900
C184        C  0.12869584  0.71783262  0.75586676     0.21700
C185        C  0.16004729  0.71549785  0.70791456    -0.20200
C186        C  0.14158647  0.74626635  0.66978216    -0.11100
C187        C  0.13684328  0.68137558  0.79488047    -0.15200
C188        C  0.14897785  0.63706361  0.78248980    -0.29100
C189        C  0.07611782  0.81365692  0.63893192    -0.03400
C190        C  0.01713586  0.83628333  0.63648435    -0.39900
H191        H  0.54898783  0.79582820  0.71351706     0.12900
H192        H  0.57742972  0.73022974  0.76725300     0.12500
H193        H  0.19840721  0.68995008  0.69952045     0.11900
H194        H  0.16623322  0.74394864  0.63311528     0.12200
H195        H  0.11299137  0.68800189  0.83144147     0.14900
H196        H  0.16888371  0.62877220  0.74529595     0.13700
H197        H  0.62197083  0.82123893  0.59097744     0.11400
H198        H  0.97426269  0.82348633  0.65813276     0.13400
C199        C  0.06283311  0.21933235  0.68047489     0.19500
C200        C  0.01184809  0.25256658  0.67455500    -0.18600
C201        C  0.01130010  0.29361527  0.70252495    -0.10900
C202        C  0.06173428  0.30326455  0.73689956     0.21700
C203        C  0.11322469  0.27039339  0.74262173    -0.20200
C204        C  0.11368839  0.22905843  0.71464981    -0.11100
C205        C  0.05502227  0.34666239  0.76744152    -0.15200
C206        C  0.09928132  0.36362772  0.80057333    -0.29100
C207        C  0.06434239  0.17383507  0.65316395    -0.03400
C208        C  0.01452420  0.15720644  0.62470456    -0.39900
H209        H  0.97179526  0.24739310  0.64871638     0.12900
H210        H  0.97052322  0.31794095  0.69746970     0.12500
H211        H  0.66075803  0.29614563  0.74152461     0.11900
H212        H  0.15354330  0.20416942  0.72031986     0.12200
H213        H  0.50352698  0.37038615  0.76710088     0.14900
H214        H  0.14678709  0.34638435  0.80627656     0.13700
H215        H  0.10714927  0.15150225  0.65970356     0.11400
H216        H  0.96933530  0.17735230  0.61983112     0.13400
C217        C  0.32006886  0.67945697  0.17303307     0.19500
C218        C  0.26384343  0.68717477  0.20451498    -0.18600
C219        C  0.26261675  0.72383800  0.23860585    -0.10900
C220        C  0.31768775  0.75360667  0.24140292     0.21700
C221        C  0.37583709  0.74371585  0.21311025    -0.20200
C222        C  0.37699704  0.70732140  0.17878515    -0.11100
C223        C  0.31298387  0.79909121  0.26635582    -0.15200
C224        C  0.25739774  0.82513179  0.26308885    -0.29100
C225        C  0.31489652  0.64460923  0.13247419    -0.03400
C226        C  0.36656982  0.63060540  0.10306793    -0.39900
H227        H  0.21965840  0.66594498  0.20128608     0.12900
H228        H  0.21762205  0.73008878  0.26100281     0.12500
H229        H  0.41875090  0.76641137  0.21464583     0.11900
H230        H  0.42137711  0.70327141  0.15533321     0.12200
H231        H  0.35936914  0.81479361  0.27750802     0.14900
H232        H  0.21135767  0.80938522  0.25093801     0.13700
H233        H  0.26562425  0.63052656  0.12586176     0.11400
H234        H  0.41685340  0.64257590  0.10926818     0.13400
C235        C  0.29008361  0.23072657  0.22206979     0.19500
C236        C  0.34579204  0.25722736  0.20708355    -0.18600
C237        C  0.33759115  0.30007616  0.18289066    -0.10900
C238        C  0.27304723  0.31709920  0.17308714     0.21700
C239        C  0.21771890  0.29254068  0.19216587    -0.20200
C240        C  0.22584162  0.24985282  0.21612047    -0.11100
C241        C  0.25969547  0.35605001  0.13776377    -0.15200
C242        C  0.30660233  0.37732635  0.10906813    -0.29100
C243        C  0.30049073  0.18110338  0.23554005    -0.03400
C244        C  0.25108563  0.15320626  0.25233969    -0.39900
H245        H  0.39582591  0.24348097  0.21134977     0.12900
H246        H  0.38195517  0.31809144  0.16992334     0.12500
H247        H  0.16745267  0.30482377  0.18543434     0.11900
H248        H  0.18099274  0.23107660  0.22628386     0.12200
H249        H  0.20756079  0.36370482  0.13050130     0.14900
H250        H  0.35929544  0.37182969  0.11535101     0.13700
H251        H  0.34841276  0.16575430  0.22498574     0.11400
H252        H  0.20311132  0.16761919  0.26385942     0.13400
C253        C  0.47736035  0.79513400  0.07869179     0.19500
C254        C  0.52817305  0.76106412  0.08225910    -0.18600
C255        C  0.53159327  0.72226494  0.04918603    -0.10900
C256        C  0.99196063  0.71698231  0.00167256     0.21700
C257        C  0.94643914  0.75404705  0.99456696    -0.20200
C258        C  0.94278654  0.79273676  0.02819096    -0.11100
C259        C  0.99684005  0.67271869  0.96845512    -0.15200
C260        C  0.96810439  0.66380230  0.92255502    -0.29100
C261        C  0.46912940  0.83640743  0.11553144    -0.03400
C262        C  0.02320174  0.85452051  0.14056139    -0.39900
H263        H  0.56465076  0.76350502  0.11152054     0.12900
H264        H  0.57100139  0.69692012  0.05441165     0.12500
H265        H  0.91251851  0.75299531  0.96349988     0.11900
H266        H  0.90621099  0.81965944  0.02113476     0.12200
H267        H  0.02820597  0.64521453  0.98325427     0.14900
H268        H  0.43210580  0.69108235  0.91465167     0.13700
H269        H  0.41985712  0.85213496  0.11851768     0.11400
H270        H  0.07121065  0.83686353  0.14010144     0.13400
C271        C  0.45795189  0.17908622  0.08447473     0.19500
C272        C  0.51385713  0.18780390  0.05256403    -0.18600
C273        C  0.51582838  0.22660205  0.01964786    -0.10900
C274        C  0.96736690  0.25989051  0.01506079     0.21700
C275        C  0.91482671  0.22757315  0.01140259    -0.20200
C276        C  0.91306813  0.18635975  0.04206759    -0.11100
C277        C  0.97590406  0.30589193  0.98563973    -0.15200
C278        C  0.93766589  0.33089862  0.95155443    -0.29100
C279        C  0.45592372  0.13988809  0.12404295    -0.03400
C280        C  0.01162930  0.11380325  0.13852068    -0.39900
H281        H  0.55735923  0.16551510  0.05353453     0.12900
H282        H  0.56143897  0.23299794  0.99803258     0.12500
H283        H  0.87500005  0.23414232  0.98540522     0.11900
H284        H  0.87130992  0.16295612  0.03865843     0.12200
H285        H  0.02291132  0.32174239  0.99502682     0.14900
H286        H  0.39196008  0.31735143  0.94503261     0.13700
H287        H  0.40851999  0.13471176  0.14387724     0.11400
H288        H  0.06102305  0.12729356  0.12971808     0.13400
C289        C  0.58572377  0.98795222  0.26702124     0.30800
C290        C  0.93085755  0.98564811  0.26569658     0.30800
C291        C  0.54285233  0.98180711  0.31736782    -0.05400
C292        C  0.54445151  0.03088272  0.24331237    -0.06200
C293        C  0.54550458  0.94948622  0.23567253    -0.06100
C294        C  0.97157715  0.97818145  0.31658587    -0.05400
C295        C  0.97063616  0.02920842  0.24222649    -0.06200
C296        C  0.97382530  0.94810082  0.23259963    -0.06100
C297        C  0.95474144  0.96125262  0.36506344    -0.31500
N298        N  0.50565432  0.96850836  0.39680484     0.15000
C299        C  0.56026585  0.96979832  0.36588486    -0.31500
H300        H  0.60824485  0.95764171  0.37748419     0.17000
C301        C  0.95349669  0.05684688  0.20012012    -0.30400
N302        N  0.00760828  0.07797425  0.17873469     0.13800
C303        C  0.56138021  0.05931468  0.20169401    -0.30400
C304        C  0.95843015  0.91447843  0.19591019    -0.30700
N305        N  0.01539905  0.89445815  0.17573189     0.14300
H306        H  0.90876811  0.90565314  0.18431237     0.16900
C307        C  0.56526233  0.91627510  0.20006797    -0.30700
H308        H  0.61630984  0.90908443  0.18846610     0.16900
H309        H  0.61029568  0.06157294  0.18401916     0.16900
H310        H  0.90629673  0.94919301  0.37753044     0.17000
H311        H  0.90564206  0.05732293  0.18245425     0.16900
C312        C  0.68052959  0.98956790  0.27255918     0.30800
C313        C  0.83665189  0.98887953  0.27059083     0.30800
C314        C  0.72204555  0.99613033  0.32385513    -0.05400
C315        C  0.72200399  0.94608330  0.25408626    -0.06200
C316        C  0.72145515  0.02847917  0.24353995    -0.06100
C317        C  0.79615039  0.99567969  0.32246262    -0.05400
C318        C  0.79574784  0.94605497  0.25309503    -0.06200
C319        C  0.79602598  0.02835320  0.24272212    -0.06100
C320        C  0.81555856  0.00870126  0.37015839    -0.31500
N321        N  0.76156554  0.01202588  0.40129227     0.15000
C322        C  0.70597979  0.00954664  0.37299260    -0.31500
H323        H  0.65800913  0.02124988  0.38665164     0.17000
C324        C  0.81446793  0.90065869  0.25990205    -0.30400
N325        N  0.75999749  0.87325546  0.26323044     0.13800
C326        C  0.70471533  0.90016710  0.26147357    -0.30400
C327        C  0.81260965  0.07497452  0.24443912    -0.30700
N328        N  0.75794975  0.10210639  0.24226028     0.14300
H329        H  0.86017026  0.08838935  0.25559194     0.16900
C330        C  0.70378790  0.07501173  0.24523651    -0.30700
H331        H  0.65528188  0.08858941  0.25610568     0.16900
H332        H  0.65488704  0.88742023  0.26955980     0.16900
H333        H  0.86471603  0.01859099  0.38123126     0.17000
H334        H  0.86484225  0.88932640  0.26678077     0.16900
C335        C  0.58797011  0.99575150  0.57852911     0.30800
C336        C  0.43161625  0.99247902  0.58179585     0.30800
C337        C  0.54482832  0.99316919  0.52721027    -0.05400
C338        C  0.54912910  0.95466065  0.60479386    -0.06200
C339        C  0.54514173  0.03713799  0.60126772    -0.06100
C340        C  0.47151965  0.98788887  0.52964545    -0.05400
C341        C  0.47487216  0.95263407  0.60706759    -0.06200
C342        C  0.47166466  0.03605056  0.60219664    -0.06100
C343        C  0.45409342  0.97031006  0.48296735    -0.31500
N344        N  0.50665201  0.97392087  0.45016554     0.15000
C345        C  0.55874075  0.99128301  0.47579985    -0.31500
H346        H  0.59724127  0.01067323  0.45699397     0.17000
C347        C  0.46154478  0.90521529  0.60575383    -0.30400
N348        N  0.51838125  0.88006372  0.60582516     0.13800
C349        C  0.57016843  0.90928278  0.60144516    -0.30400
C350        C  0.45212724  0.08200692  0.60920943    -0.30700
N351        N  0.50604672  0.10954366  0.61546735     0.14300
H352        H  0.90990750  0.09972464  0.59626518     0.16900
C353        C  0.56160140  0.08352834  0.60658333    -0.30700
H354        H  0.61039206  0.09818688  0.59970254     0.16900
H355        H  0.61959718  0.89834596  0.58982536     0.17300
H356        H  0.90614301  0.95828977  0.46790293     0.17000
H357        H  0.91083366  0.89308910  0.60457345     0.16900
C358        C  0.68301439  0.99399378  0.58471721     0.30800
C359        C  0.83928781  0.99693887  0.58416441     0.30800
C360        C  0.72715471  0.99536408  0.53431445    -0.05400
C361        C  0.72232103  0.03464797  0.61356421    -0.06200
C362        C  0.72499504  0.95268796  0.61163203    -0.06100
C363        C  0.79898727  0.00132402  0.53399891    -0.05400
C364        C  0.79642113  0.03598538  0.61343492    -0.06200
C365        C  0.79890530  0.95488364  0.61105423    -0.06100
C366        C  0.81555696  0.01598941  0.48502684    -0.31500
N367        N  0.76229062  0.01010612  0.45491943     0.15000
C368        C  0.71177960  0.99339468  0.48428952    -0.31500
H369        H  0.67655388  0.96916114  0.47017821     0.17000
C370        C  0.81255600  0.06693321  0.65168925    -0.30400
N371        N  0.75625811  0.08551715  0.67335019     0.13800
C372        C  0.70298857  0.06353040  0.65351167    -0.30400
C373        C  0.81695495  0.92820002  0.65270884    -0.30700
N374        N  0.76530302  0.90377444  0.67313482     0.14300
H375        H  0.86450962  0.92970929  0.67075079     0.16900
C376        C  0.70901925  0.92105672  0.65160778    -0.30700
H377        H  0.65986510  0.91414171  0.66718368     0.16900
H378        H  0.65330237  0.06609514  0.66987790     0.16900
H379        H  0.86288099  0.03010031  0.47228107     0.17000
H380        H  0.86173429  0.07223789  0.66628509     0.16900
O381        O  0.88145283  0.53915499  0.79763134    -0.80100
O382        O  0.60969233  0.55636088  0.94590106    -0.64800
O383        O  0.01211342  0.51886186  0.82977063    -1.11400
C384        C  0.46451844  0.37855141  0.93814032     1.06800
O385        O  0.63709559  0.48568047  0.93566114    -0.78000
O386        O  0.60510661  0.40708650  0.88282491    -0.65600
Ni387      Ni  0.96868022  0.56730373  0.79167401     1.34900
C388        C  0.57512399  0.40287692  0.84110139     0.85500
O389        O  0.60152888  0.59124775  0.85312120    -0.78500
O390        O  0.05318782  0.59396703  0.77650398    -0.88800
C391        C  0.63156251  0.52013176  0.96483760     0.85100
O392        O  0.95727066  0.61508022  0.84623754    -0.67000
O393        O  0.51777094  0.39065875  0.95893390    -0.86300
C394        C  0.47016232  0.61847834  0.90048448     0.85900
C395        C  0.59035130  0.60812335  0.80944630     1.07500
H396        H  0.49077578  0.49258430  0.95044635     0.39300
O397        O  0.51937826  0.48309686  0.92247930    -1.09000
O398        O  0.02617269  0.42450139  0.82525356    -0.65600
Ni399      Ni  0.96811881  0.46479093  0.86265781     1.26300
O400        O  0.49961723  0.58396577  0.92053411    -0.65800
O401        O  0.93457929  0.40520445  0.89751666    -0.78100
C402        C  0.87437934  0.50095775  0.82094412     0.85300
O403        O  0.90750740  0.46469867  0.80842569    -0.65300
Ni404      Ni  0.57990816  0.43779167  0.94621780     1.27400
Ni405      Ni  0.56003467  0.53973748  0.88956001     1.26100
H406        H  0.04355051  0.50598539  0.80552791     0.39800
O407        O  0.90029269  0.53729143  0.89424638    -0.80100
O408        O  0.68606068  0.55038473  0.03105023    -0.64800
O409        O  0.85955405  0.51423255  0.99003018    -1.11400
C410        C  0.76097531  0.37088177  0.92777314     1.06800
O411        O  0.65612786  0.48012177  0.03967846    -0.78000
O412        O  0.73648158  0.40561171  0.04582938    -0.65600
Ni413      Ni  0.91007171  0.56231250  0.95951052     1.34900
C414        C  0.79821705  0.40633709  0.05655769     0.85500
O415        O  0.80505515  0.58767317  0.04414562    -0.78500
O416        O  0.91501746  0.59081137  0.02434676    -0.88800
C417        C  0.64864377  0.51865080  0.01786506     0.85100
O418        O  0.84924305  0.61117189  0.93968038    -0.67000
O419        O  0.70653137  0.38509258  0.94791021    -0.86300
C420        C  0.78846972  0.60780583  0.92911621     0.85900
C421        C  0.86423831  0.60264869  0.05159483     1.07500
H422        H  0.74372298  0.48614484  0.93799347     0.39300
O423        O  0.75309097  0.47631620  0.97154028    -1.09000
O424        O  0.84269402  0.42712316  0.02995196    -0.65600
Ni425      Ni  0.83993993  0.45248934  0.96302597     1.26300
O426        O  0.75507217  0.57346853  0.94745607    -0.65800
O427        O  0.81630599  0.39166566  0.93491034    -0.78100
C428        C  0.86699550  0.50575475  0.87374222     0.85300
O429        O  0.83764040  0.47351242  0.89643539    -0.65300
Ni430      Ni  0.68388576  0.43376679  0.99468217     1.27400
Ni431      Ni  0.77420168  0.53429866  0.00808541     1.26100
H432        H  0.88209638  0.50781908  0.02122081     0.39800
C433        C  0.74548757  0.79514007  0.76568582     0.19500
C434        C  0.70292267  0.78242220  0.80691569    -0.18600
C435        C  0.71691508  0.74351495  0.83870442    -0.10900
C436        C  0.77306549  0.71450447  0.82957385     0.21700
C437        C  0.81490289  0.72705912  0.78792454    -0.20200
C438        C  0.80164515  0.76621877  0.75686034    -0.11100
C439        C  0.79469601  0.67398871  0.86391648    -0.15200
C440        C  0.75718644  0.64550780  0.89547887    -0.29100
C441        C  0.72893802  0.83666028  0.73104262    -0.03400
C442        C  0.77586860  0.86636745  0.71073725    -0.39900
H443        H  0.65884237  0.80320011  0.81513670     0.12900
H444        H  0.68385694  0.73638997  0.87061628     0.12500
H445        H  0.85896161  0.70634390  0.77930555     0.11900
H446        H  0.83526969  0.77345823  0.72529322     0.12200
H447        H  0.84747743  0.66596712  0.86125341     0.14900
H448        H  0.70329064  0.64963113  0.89671774     0.13700
H449        H  0.67683087  0.84291935  0.72284199     0.11400
H450        H  0.82712919  0.86005434  0.72155710     0.13400
C451        C  0.79613852  0.19384753  0.75755021     0.19500
C452        C  0.74065785  0.20443951  0.78956949    -0.18600
C453        C  0.74137889  0.24307818  0.82265282    -0.10900
C454        C  0.79762905  0.27259967  0.82496827     0.21700
C455        C  0.85228553  0.26205153  0.79256986    -0.20200
C456        C  0.85160079  0.22367654  0.75984552    -0.11100
C457        C  0.80247778  0.31475266  0.85932882    -0.15200
C458        C  0.75691679  0.32783010  0.89543643    -0.29100
C459        C  0.79970671  0.15308753  0.72094909    -0.03400
C460        C  0.75091474  0.12132209  0.71244700    -0.39900
H461        H  0.69636879  0.18317287  0.78930897     0.12900
H462        H  0.69741700  0.24962589  0.84596169     0.12500
H463        H  0.89642079  0.28365556  0.79260107     0.11900
H464        H  0.89525935  0.21725647  0.73600954     0.12200
H465        H  0.84636759  0.33643830  0.85422430     0.14900
H466        H  0.71185883  0.30747799  0.90042758     0.13700
H467        H  0.84546901  0.14996522  0.69842977     0.11400
H468        H  0.70361603  0.12465219  0.73284759     0.13400
C469        C  0.59476818  0.76693252  0.64580435     0.19500
C470        C  0.57648893  0.76688908  0.69720892    -0.18600
C471        C  0.59445867  0.72984278  0.72828658    -0.10900
C472        C  0.63086218  0.69195103  0.70843088     0.21700
C473        C  0.64938002  0.69232705  0.65708457    -0.20200
C474        C  0.63252324  0.72988799  0.62621244    -0.11100
C475        C  0.63851272  0.64820011  0.73739845    -0.15200
C476        C  0.63205436  0.64530464  0.78790525    -0.29100
C477        C  0.58089492  0.80789419  0.61402861    -0.03400
C478        C  0.52272031  0.83137731  0.61782159    -0.39900
H479        H  0.02658774  0.81046113  0.73610011     0.12900
H480        H  0.05729511  0.75604204  0.80224471     0.12500
H481        H  0.67593279  0.66303508  0.64064621     0.11900
H482        H  0.64791122  0.72967202  0.58683113     0.12200
H483        H  0.63446601  0.61639643  0.71578009     0.14900
H484        H  0.63867464  0.67549908  0.81116025     0.13700
H485        H  0.11764405  0.82377989  0.61442495     0.11400
H486        H  0.48062695  0.81555319  0.63788659     0.13400
C487        C  0.55396954  0.22611353  0.67774003     0.19500
C488        C  0.49457521  0.25129023  0.68740422    -0.18600
C489        C  0.49496106  0.29172720  0.71669729    -0.10900
C490        C  0.55421516  0.30832563  0.73770918     0.21700
C491        C  0.61391216  0.28408916  0.72706076    -0.20200
C492        C  0.61367104  0.24369981  0.69735448    -0.11100
C493        C  0.55004686  0.35103460  0.76985181    -0.15200
C494        C  0.59431696  0.36498554  0.80486741    -0.29100
C495        C  0.55606205  0.18020828  0.65059836    -0.03400
C496        C  0.50267855  0.15770248  0.63171002    -0.39900
H497        H  0.44724415  0.23983179  0.67344530     0.12900
H498        H  0.44803190  0.30968969  0.72385874     0.12500
H499        H  0.15238831  0.27587001  0.76917232     0.11900
H500        H  0.66046523  0.22552836  0.69047578     0.12200
H501        H  0.00763386  0.36483133  0.76393203     0.14900
H502        H  0.63959609  0.34512142  0.81109800     0.13700
H503        H  0.60408091  0.16261488  0.64936590     0.11400
H504        H  0.45385091  0.17404501  0.63327749     0.13400
C505        C  0.82661698  0.68101498  0.16603757     0.19500
C506        C  0.76865343  0.68857189  0.19573254    -0.18600
C507        C  0.76589903  0.72421459  0.23097660    -0.10900
C508        C  0.82105801  0.75343436  0.23664659     0.21700
C509        C  0.88071107  0.74370511  0.20996534    -0.20200
C510        C  0.88356702  0.70800094  0.17472089    -0.11100
C511        C  0.81568990  0.79812529  0.26334426    -0.15200
C512        C  0.75901091  0.82341985  0.26301981    -0.29100
C513        C  0.82342043  0.64631271  0.12519199    -0.03400
C514        C  0.87393559  0.63569213  0.09284379    -0.39900
H515        H  0.72440100  0.66783630  0.19044686     0.12900
H516        H  0.71981667  0.72981246  0.25222451     0.12500
H517        H  0.92396669  0.76575113  0.21388221     0.11900
H518        H  0.92964471  0.70330476  0.15340698     0.12200
H519        H  0.86226180  0.81436382  0.27311894     0.14900
H520        H  0.71234023  0.80721681  0.25319825     0.13700
H521        H  0.77560503  0.62927492  0.12079442     0.11400
H522        H  0.92285297  0.65110926  0.09586053     0.13400
C523        C  0.80365233  0.22516332  0.20331921     0.19500
C524        C  0.85184301  0.24126890  0.16833729    -0.18600
C525        C  0.84586953  0.28511475  0.14635064    -0.10900
C526        C  0.79166777  0.31418892  0.15958147     0.21700
C527        C  0.74549265  0.29918687  0.19666145    -0.20200
C528        C  0.75150061  0.25523221  0.21864674    -0.11100
C529        C  0.77567041  0.35621457  0.12980333    -0.15200
C530        C  0.82026225  0.37834446  0.09972571    -0.29100
C531        C  0.80778536  0.17594015  0.21975509    -0.03400
C532        C  0.75593567  0.15193376  0.23960461    -0.39900
H533        H  0.89270124  0.21898321  0.15620780     0.12900
H534        H  0.88158359  0.29467305  0.11695465     0.12500
H535        H  0.70317182  0.32089530  0.20729654     0.11900
H536        H  0.71435375  0.24488497  0.24661355     0.12200
H537        H  0.72322545  0.36596179  0.12830446     0.14900
H538        H  0.87334004  0.37131246  0.10261747     0.13700
H539        H  0.85310528  0.15713799  0.20923018     0.11400
H540        H  0.70839003  0.16897278  0.24713035     0.13400
C541        C  0.98488365  0.79707071  0.07031686     0.19500
C542        C  0.03079820  0.76017033  0.07703167    -0.18600
C543        C  0.03382808  0.72128396  0.04388796    -0.10900
C544        C  0.48535693  0.71564623  0.01016235     0.21700
C545        C  0.43475743  0.74978848  0.00638452    -0.20200
C546        C  0.43060694  0.78820030  0.04010554    -0.11100
C547        C  0.49039508  0.67170043  0.97699990    -0.15200
C548        C  0.46100289  0.66340092  0.93136503    -0.29100
C549        C  0.97667274  0.83878470  0.10710833    -0.03400
C550        C  0.51890918  0.85579899  0.14332495    -0.39900
H551        H  0.06368480  0.76051156  0.10875478     0.12900
H552        H  0.06943425  0.69390660  0.05171256     0.12500
H553        H  0.39717653  0.74645309  0.97805941     0.11900
H554        H  0.39009994  0.81284892  0.03590923     0.12200
H555        H  0.52241004  0.64430022  0.99125465     0.14900
H556        H  0.93901911  0.69129313  0.90557680     0.13700
H557        H  0.93023061  0.85822065  0.10515257     0.11400
H558        H  0.56875276  0.84140051  0.13798987     0.13400
C559        C  0.96388338  0.17550125  0.07706395     0.19500
C560        C  0.01615368  0.20777701  0.07977923    -0.18600
C561        C  0.01772571  0.24842026  0.04979035    -0.10900
C562        C  0.46196557  0.25827693  0.01601409     0.21700
C563        C  0.40449234  0.24860967  0.04594348    -0.20200
C564        C  0.40257107  0.20967671  0.07935329    -0.11100
C565        C  0.47558215  0.30518932  0.99092792    -0.15200
C566        C  0.43834619  0.33141955  0.95786709    -0.29100
C567        C  0.95888073  0.13329401  0.11322177    -0.03400
C568        C  0.50906372  0.11295438  0.13865093    -0.39900
H569        H  0.05554329  0.20275159  0.10643493     0.12900
H570        H  0.05930066  0.27175274  0.05462889     0.12500
H571        H  0.36261380  0.27255041  0.04585146     0.11900
H572        H  0.35822982  0.20449322  0.10282495     0.12200
H573        H  0.52443626  0.31833533  0.00022015     0.14900
H574        H  0.89036974  0.31710790  0.93994447     0.13700
H575        H  0.90957032  0.11873076  0.11981884     0.11400
H576        H  0.55744323  0.11914188  0.12082353     0.13400
loop_ 
_geom_bond_atom_site_label_1 
_geom_bond_atom_site_label_2 
_geom_bond_distance 
_geom_bond_site_symmetry_2 
_ccdc_geom_bond_type 
C1            C3   1.573       .  S
C1            C5   1.628       .  S
C1            C4   1.615   1_565  S
C1           C24   1.896       .  S
C2            C6   1.588       .  S
C2            C8   1.628       .  S
C2            C7   1.600   1_565  S
C2           C25   1.888       .  S
C3           C11   1.391       .  A
C3          C294   1.454   1_455  A
C4           C15   1.410       .  A
C4          C295   1.478   1_455  A
C5           C19   1.404       .  A
C5          C296   1.480   1_455  A
C6            C9   1.396       .  A
C6          C291   1.458       .  A
C7           C13   1.406       .  A
C7          C292   1.482       .  A
C8           C16   1.415       .  A
C8          C293   1.481       .  A
C9           H22   1.074       .  S
C9          N298   1.355       .  A
N10          C11   1.354       .  A
N10         C297   1.365   1_455  A
N10          N56   1.438       .  S
C11          H12   1.074       .  S
C13          H23   1.076       .  S
C13          N14   1.354       .  A
N14         C303   1.361       .  A
N14         C568   1.474       .  S
C15          H21   1.078       .  S
C15         N302   1.361       .  A
C16          H18   1.080       .  S
C16          N17   1.374       .  A
N17         C307   1.369       .  A
N17         C550   1.485       .  S
C19          H20   1.080       .  S
C19         N305   1.372       .  A
C24          C26   1.635       .  S
C24          C28   1.577   1_565  S
C24          C27   1.561       .  S
C25          C29   1.609   1_565  S
C25          C31   1.584   1_565  S
C25          C30   1.564       .  S
C26          C34   1.408   1_565  A
C26          C29   1.483   1_565  A
C27          C38   1.376       .  A
C27          C30   1.467       .  A
C28          C42   1.383       .  A
C28          C31   1.494       .  A
C29          C32   1.396       .  A
C30          C36   1.375       .  A
C31          C39   1.391       .  A
C32          H45   1.077       .  S
C32          N33   1.356       .  A
N33          C34   1.368       .  A
N33          N79   1.437       .  S
C34          H35   1.078       .  S
C36          H46   1.078       .  S
C36          N37   1.353       .  A
N37          C38   1.347       .  A
N37         C224   1.435       .  S
C38          H44   1.081       .  S
C39          H41   1.079       .  S
C39          N40   1.343       .  A
N40          C42   1.338       .  A
N40         C244   1.435       .  S
C42          H43   1.080       .  S
C47          C49   1.630       .  S
C47          C51   1.566   1_565  S
C47          C50   1.559       .  S
C47          C70   1.886       .  S
C48          C52   1.614       .  S
C48          C54   1.584   1_565  S
C48          C53   1.593       .  S
C48         C359   1.889       .  S
C49          C57   1.406       .  A
C49          C52   1.483   1_455  A
C50          C61   1.369       .  A
C50          C53   1.485   1_455  A
C51          C65   1.379       .  A
C51          C54   1.459   1_455  A
C52          C55   1.400       .  A
C53          C59   1.399       .  A
C54          C62   1.386       .  A
C55         H356   1.075       .  S
C55          N56   1.361   1_655  A
N56          C57   1.368       .  A
C57          H58   1.078       .  S
C59         H357   1.076       .  S
C59          N60   1.344   1_655  A
N60          C61   1.334       .  A
N60         C190   1.439       .  S
C61          H67   1.074       .  S
C62         H352   1.078       .  S
C62          N63   1.357   1_655  A
N63          C65   1.354       .  A
N63         C208   1.447       .  S
H64         C350   1.078       .  S
C65          H66   1.079       .  S
H68         C343   1.079       .  S
H69         C347   1.077       .  S
C70          C72   1.569   1_565  S
C70          C74   1.621       .  S
C70          C73   1.603   1_565  S
C71          C75   1.612   1_565  S
C71          C77   1.618       .  S
C71          C76   1.618   1_565  S
C71         C336   1.887       .  S
C72          C80   1.389       .  A
C72          C75   1.453       .  A
C73          C84   1.394       .  A
C73          C76   1.479       .  A
C74          C88   1.415       .  A
C74          C77   1.480       .  A
C75          C78   1.411       .  A
C76          C82   1.407       .  A
C77          C85   1.424       .  A
C78          H91   1.074       .  S
C78          N79   1.369       .  A
N79          C80   1.353       .  A
C80          H81   1.074       .  S
C82          H92   1.080       .  S
C82          N83   1.366       .  A
N83          C84   1.361       .  A
N83         C172   1.469       .  S
C84          H90   1.081       .  S
C85          H87   1.077       .  S
C85          N86   1.362       .  A
N86          C88   1.358       .  A
N86         C154   1.488       .  S
C88          H89   1.077       .  S
O93         Ni99   1.926       .  S
O93         C114   1.263       .  A
O94        Ni117   1.882       .  S
O94         C103   1.237       .  A
O95         Ni99   1.933       .  S
O95        Ni111   1.981       .  S
O95        Ni405   1.882       .  S
O95         H118   0.968       .  S
C96         O105   1.264   1_655  A
C96         O401   1.320       .  A
C96         C278   1.553       .  S
O97        Ni116   1.812       .  S
O97         C103   1.261       .  A
O98        Ni116   1.942       .  S
O98         C100   1.275       .  A
Ni99        O102   1.886       .  S
Ni99        O104   2.008       .  S
C100        O398   1.267       .  A
C100        C206   1.494       .  S
O101       Ni117   1.932       .  S
O101        C107   1.275       .  A
O102        C395   1.268       .  A
C103        C129   1.454   1_556  S
O104        C394   1.296       .  A
O105       Ni116   1.867       .  S
C106        O112   1.275   1_655  A
C106        O392   1.297       .  A
C106        C260   1.552       .  S
C107        O390   1.268       .  A
C107        C188   1.456       .  S
H108        O109   0.966   1_655  S
O109       Ni117   2.005       .  S
O109       Ni116   1.893       .  S
O109       Ni399   1.873   1_455  S
O110       Ni111   1.898       .  S
O110        C388   1.265       .  A
Ni111       O115   1.904       .  S
Ni111       O113   2.053       .  S
Ni111       O397   1.870       .  S
O112       Ni117   1.933       .  S
O113        C384   1.318       .  A
C114        O115   1.276       .  A
C114        C140   1.415       .  S
Ni117       O383   1.885       .  S
O119       Ni125   1.901       .  S
O119        C140   1.263       .  A
O120       Ni143   1.908       .  S
O120        C129   1.244       .  A
O121       Ni125   1.886       .  S
O121       Ni143   1.841   1_556  S
O121       Ni137   1.954       .  S
O121        H144   0.967   1_556  S
C122        O139   1.277       .  A
C122        O131   1.274       .  A
C122        C170   1.520       .  S
O123       Ni142   1.882   1_554  S
O123        C129   1.264       .  A
O124       Ni142   1.925   1_554  S
O124        C126   1.279       .  A
Ni125       O128   1.903   1_556  S
Ni125       O130   1.941       .  S
C126        O136   1.272       .  A
C126        C242   1.474       .  S
O127       Ni143   1.948       .  S
O127        C133   1.292       .  A
O128        C133   1.282       .  A
O130        C132   1.255       .  A
O131       Ni142   1.952       .  S
C132        O138   1.286       .  A
C132        C152   1.545       .  S
C133        C226   1.468       .  S
H134        O135   0.953       .  S
O135       Ni143   1.997   1_556  S
O135       Ni137   1.870       .  S
O135       Ni142   1.943       .  S
O136       Ni137   1.912   1_554  S
Ni137       O141   1.857       .  S
Ni137       O139   1.949       .  S
O138       Ni143   2.020   1_556  S
C140        O141   1.245       .  A
C145        C146   1.418       .  A
C145        C150   1.421       .  A
C145        C153   1.558       .  S
C146        C147   1.433       .  A
C146        H155   1.081       .  S
C147        C148   1.420       .  A
C147        H156   1.082       .  S
C148        C149   1.413       .  A
C148        C151   1.547       .  S
C149        C150   1.428       .  A
C149        H157   1.083       .  S
C150        H158   1.083       .  S
C151        H159   1.084       .  S
C151        C152   1.385       .  D
C152        H160   1.083       .  S
C153        H161   1.086       .  S
C153        C154   1.381       .  D
C154        H162   1.085       .  S
C163        C164   1.412       .  A
C163        C168   1.413       .  A
C163        C171   1.528       .  S
C164        C165   1.420       .  A
C164        H173   1.082       .  S
C165        C166   1.415       .  A
C165        H174   1.083       .  S
C166        C167   1.412       .  A
C166        C169   1.530       .  S
C167        C168   1.416       .  A
C167        H175   1.082       .  S
C168        H176   1.083       .  S
C169        H177   1.086       .  S
C169        C170   1.364       .  D
C170        H178   1.085       .  S
C171        H179   1.086       .  S
C171        C172   1.366       .  D
C172        H180   1.086       .  S
C181        C182   1.404       .  A
C181        C186   1.402       .  A
C181        C189   1.475       .  S
C182        C183   1.394       .  A
C182        H479   1.083       .  S
C183        C184   1.403       .  A
C183        H480   1.084       .  S
C184        C185   1.408       .  A
C184        C187   1.482       .  S
C185        C186   1.397       .  A
C185        H193   1.081       .  S
C186        H194   1.083       .  S
C187        H195   1.089       .  S
C187        C188   1.339       .  D
C188        H196   1.084       .  S
C189        H485   1.084       .  S
C189        C190   1.349       .  D
C190        H198   1.087   1_455  S
H191        C470   1.083       .  S
H192        C471   1.082       .  S
H197        C477   1.084       .  S
C199        C200   1.407       .  A
C199        C204   1.410       .  A
C199        C207   1.501       .  S
C200        C201   1.400       .  A
C200        H209   1.079   1_455  S
C201        C202   1.407       .  A
C201        H210   1.083   1_455  S
C202        C203   1.407       .  A
C202        C205   1.497       .  S
C203        C204   1.407       .  A
C203        H499   1.080       .  S
C204        H212   1.083       .  S
C205        H501   1.087       .  S
C205        C206   1.358       .  D
C206        H214   1.084       .  S
C207        H215   1.086       .  S
C207        C208   1.357       .  D
C208        H216   1.082   1_455  S
H211        C491   1.082       .  S
H213        C493   1.087       .  S
C217        C218   1.404       .  A
C217        C222   1.409       .  A
C217        C225   1.482       .  S
C218        C219   1.394       .  A
C218        H227   1.084       .  S
C219        C220   1.404       .  A
C219        H228   1.083       .  S
C220        C221   1.400       .  A
C220        C223   1.473       .  S
C221        C222   1.393       .  A
C221        H229   1.084       .  S
C222        H230   1.079       .  S
C223        H231   1.084       .  S
C223        C224   1.343       .  D
C224        H232   1.086       .  S
C225        H233   1.087       .  S
C225        C226   1.343       .  D
C226        H234   1.083       .  S
C235        C236   1.404       .  A
C235        C240   1.409       .  A
C235        C243   1.486       .  S
C236        C237   1.399       .  A
C236        H245   1.084       .  S
C237        C238   1.410       .  A
C237        H246   1.080       .  S
C238        C239   1.401       .  A
C238        C241   1.486       .  S
C239        C240   1.392       .  A
C239        H247   1.084       .  S
C240        H248   1.079       .  S
C241        H249   1.087       .  S
C241        C242   1.344       .  D
C242        H250   1.083       .  S
C243        H251   1.086       .  S
C243        C244   1.344       .  D
C244        H252   1.083       .  S
C253        C254   1.414       .  A
C253        C546   1.420       .  A
C253        C261   1.549       .  S
C254        C255   1.425       .  A
C254        H263   1.082       .  S
C255        C544   1.420       .  A
C255        H264   1.083       .  S
C256        C257   1.415   1_554  A
C256        C543   1.422   1_655  A
C256        C259   1.556   1_554  S
C257        C258   1.432   1_556  A
C257        H265   1.082       .  S
C258        C541   1.423       .  A
C258        H266   1.083       .  S
C259        H267   1.086   1_655  S
C259        C260   1.386       .  D
C260        H556   1.083       .  S
C261        H269   1.085       .  S
C261        C550   1.377       .  D
C262        N305   1.491       .  S
C262        H270   1.085       .  S
C262        C549   1.382   1_455  D
H268        C548   1.082       .  S
C271        C272   1.411       .  A
C271        C564   1.421       .  A
C271        C279   1.538       .  S
C272        C273   1.415       .  A
C272        H281   1.080       .  S
C273        C562   1.414       .  A
C273        H282   1.083   1_554  S
C274        C275   1.414       .  A
C274        C561   1.419   1_655  A
C274        C277   1.543   1_554  S
C275        C276   1.436       .  A
C275        H283   1.082   1_554  S
C276        C559   1.427       .  A
C276        H284   1.083       .  S
C277        H285   1.083   1_655  S
C277        C278   1.394       .  D
C278        H574   1.081       .  S
C279        H287   1.085       .  S
C279        C568   1.376       .  D
C280        N302   1.482       .  S
C280        H288   1.084       .  S
C280        C567   1.380   1_455  D
H286        C566   1.079       .  S
C289        C291   1.581       .  S
C289        C293   1.619       .  S
C289        C292   1.617   1_565  S
C289        C312   1.909       .  S
C290        C294   1.608       .  S
C290        C296   1.627       .  S
C290        C295   1.605   1_565  S
C290        C313   1.890       .  S
C291        C299   1.384       .  A
C292        C303   1.408       .  A
C293        C307   1.398       .  A
C294        C297   1.408       .  A
C295        C301   1.417       .  A
C296        C304   1.418       .  A
C297        H310   1.076       .  S
N298        C299   1.352       .  A
N298        N344   1.427       .  S
C299        H300   1.072       .  S
C301        H311   1.077       .  S
C301        N302   1.357   1_655  A
C303        H309   1.078       .  S
C304        H306   1.080       .  S
C304        N305   1.374   1_655  A
C307        H308   1.080       .  S
C312        C314   1.625       .  S
C312        C316   1.578   1_565  S
C312        C315   1.573       .  S
C313        C317   1.594       .  S
C313        C319   1.585   1_565  S
C313        C318   1.563       .  S
C314        C322   1.393   1_565  A
C314        C317   1.484       .  A
C315        C326   1.380       .  A
C315        C318   1.476       .  A
C316        C330   1.385       .  A
C316        C319   1.493       .  A
C317        C320   1.388   1_565  A
C318        C324   1.370       .  A
C319        C327   1.386       .  A
C320        H333   1.074       .  S
C320        N321   1.349       .  A
N321        C322   1.360       .  A
N321        N367   1.425       .  S
C322        H323   1.072       .  S
C324        H334   1.078       .  S
C324        N325   1.351       .  A
N325        C326   1.350       .  A
N325        C512   1.436       .  S
C326        H332   1.081       .  S
C327        H329   1.078       .  S
C327        N328   1.344       .  A
N328        C330   1.340       .  A
N328        C532   1.437       .  S
C330        H331   1.079       .  S
C335        C337   1.633       .  S
C335        C339   1.579   1_565  S
C335        C338   1.571       .  S
C335        C358   1.915       .  S
C336        C340   1.588       .  S
C336        C342   1.597   1_565  S
C336        C341   1.589       .  S
C337        C345   1.388       .  A
C337        C340   1.477       .  A
C338        C349   1.374       .  A
C338        C341   1.488       .  A
C339        C353   1.387       .  A
C339        C342   1.472       .  A
C340        C343   1.394       .  A
C341        C347   1.394       .  A
C342        C350   1.391       .  A
C343        N344   1.354       .  A
N344        C345   1.358       .  A
C345        H346   1.067   1_565  S
C347        N348   1.346       .  A
N348        C349   1.341       .  A
N348        C478   1.439       .  S
C349        H355   1.076       .  S
C350        N351   1.357       .  A
N351        C353   1.355       .  A
N351        C496   1.456       .  S
C353        H354   1.078       .  S
C358        C360   1.587       .  S
C358        C362   1.625       .  S
C358        C361   1.620   1_565  S
C359        C363   1.578   1_565  S
C359        C365   1.614       .  S
C359        C364   1.604   1_565  S
C360        C368   1.372       .  A
C360        C363   1.449   1_565  A
C361        C372   1.398       .  A
C361        C364   1.485       .  A
C362        C376   1.427       .  A
C362        C365   1.482       .  A
C363        C366   1.398       .  A
C364        C370   1.400       .  A
C365        C373   1.397       .  A
C366        H379   1.079       .  S
C366        N367   1.360       .  A
N367        C368   1.351   1_545  A
C368        H369   1.070       .  S
C370        H380   1.079       .  S
C370        N371   1.362       .  A
N371        C372   1.362       .  A
N371        C460   1.469       .  S
C372        H378   1.079       .  S
C373        H375   1.077       .  S
C373        N374   1.355       .  A
N374        C376   1.366       .  A
N374        C442   1.483       .  S
C376        H377   1.078       .  S
O381       Ni387   1.932       .  S
O381        C402   1.266       .  A
O382       Ni405   1.882       .  S
O382        C391   1.238       .  A
O383       Ni387   1.934   1_455  S
O383       Ni399   1.982   1_455  S
O383        H406   0.964       .  S
C384        O393   1.264       .  A
C384        C566   1.542       .  S
O385       Ni404   1.814       .  S
O385        C391   1.265       .  A
O386       Ni404   1.960       .  S
O386        C388   1.279       .  A
Ni387       O390   1.896   1_655  S
Ni387       O392   2.012       .  S
C388        C494   1.501       .  S
O389       Ni405   1.946       .  S
O389        C395   1.279       .  A
C391        C417   1.457   1_556  S
O393       Ni404   1.870       .  S
C394        O400   1.274       .  A
C394        C548   1.543       .  S
C395        C476   1.467       .  S
H396        O397   0.967       .  S
O397       Ni405   2.013       .  S
O397       Ni404   1.892       .  S
O398       Ni399   1.905   1_455  S
Ni399       O403   1.905       .  S
Ni399       O401   2.054       .  S
O400       Ni405   1.926       .  S
C402        O403   1.276       .  A
C402        C428   1.414       .  S
O407       Ni413   1.895       .  S
O407        C428   1.263       .  A
O408       Ni431   1.909       .  S
O408        C417   1.242       .  A
O409       Ni413   1.887       .  S
O409       Ni431   1.855   1_556  S
O409       Ni425   1.966       .  S
O409        H432   0.969   1_556  S
C410        O427   1.281       .  A
C410        O419   1.270       .  A
C410        C458   1.516       .  S
O411       Ni430   1.870   1_554  S
O411        C417   1.259       .  A
O412       Ni430   1.913   1_554  S
O412        C414   1.276       .  A
Ni413       O416   1.916   1_556  S
Ni413       O418   1.935       .  S
C414        O424   1.273       .  A
C414        C530   1.473       .  S
O415       Ni431   1.928       .  S
O415        C421   1.283       .  A
O416        C421   1.280       .  A
O418        C420   1.260       .  A
O419       Ni430   1.923       .  S
C420        O426   1.284       .  A
C420        C440   1.542       .  S
C421        C514   1.472       .  S
H422        O423   0.956       .  S
O423       Ni431   1.988   1_556  S
O423       Ni425   1.876       .  S
O423       Ni430   1.941       .  S
O424       Ni425   1.920   1_554  S
Ni425       O429   1.867       .  S
Ni425       O427   1.972       .  S
O426       Ni431   2.004   1_556  S
C428        O429   1.246       .  A
C433        C434   1.419       .  A
C433        C438   1.412       .  A
C433        C441   1.544       .  S
C434        C435   1.430       .  A
C434        H443   1.083       .  S
C435        C436   1.415       .  A
C435        H444   1.082       .  S
C436        C437   1.418       .  A
C436        C439   1.544       .  S
C437        C438   1.421       .  A
C437        H445   1.083       .  S
C438        H446   1.083       .  S
C439        H447   1.082       .  S
C439        C440   1.381       .  D
C440        H448   1.085       .  S
C441        H449   1.085       .  S
C441        C442   1.373       .  D
C442        H450   1.087       .  S
C451        C452   1.416       .  A
C451        C456   1.410       .  A
C451        C459   1.529       .  S
C452        C453   1.422       .  A
C452        H461   1.081       .  S
C453        C454   1.418       .  A
C453        H462   1.080       .  S
C454        C455   1.409       .  A
C454        C457   1.528       .  S
C455        C456   1.410       .  A
C455        H463   1.084       .  S
C456        H464   1.083       .  S
C457        H465   1.086       .  S
C457        C458   1.361       .  D
C458        H466   1.084       .  S
C459        H467   1.086       .  S
C459        C460   1.366       .  D
C460        H468   1.084       .  S
C469        C470   1.405       .  A
C469        C474   1.400       .  A
C469        C477   1.476       .  S
C470        C471   1.396       .  A
C471        C472   1.407       .  A
C472        C473   1.405       .  A
C472        C475   1.482       .  S
C473        C474   1.398       .  A
C473        H481   1.083       .  S
C474        H482   1.083       .  S
C475        H483   1.088       .  S
C475        C476   1.347       .  D
C476        H484   1.080       .  S
C477        C478   1.346       .  D
C478        H486   1.087       .  S
C487        C488   1.409       .  A
C487        C492   1.413       .  A
C487        C495   1.509       .  S
C488        C489   1.404       .  A
C488        H497   1.080       .  S
C489        C490   1.410       .  A
C489        H498   1.084       .  S
C490        C491   1.405       .  A
C490        C493   1.502       .  S
C491        C492   1.409       .  A
C492        H500   1.083       .  S
C493        C494   1.364       .  D
C494        H502   1.085       .  S
C495        H503   1.085       .  S
C495        C496   1.361       .  D
C496        H504   1.083       .  S
C505        C506   1.404       .  A
C505        C510   1.408       .  A
C505        C513   1.482       .  S
C506        C507   1.393       .  A
C506        H515   1.084       .  S
C507        C508   1.404       .  A
C507        H516   1.082       .  S
C508        C509   1.402       .  A
C508        C511   1.475       .  S
C509        C510   1.394       .  A
C509        H517   1.084       .  S
C510        H518   1.079       .  S
C511        H519   1.083       .  S
C511        C512   1.346       .  D
C512        H520   1.085       .  S
C513        H521   1.087       .  S
C513        C514   1.347       .  D
C514        H522   1.083       .  S
C523        C524   1.402       .  A
C523        C528   1.407       .  A
C523        C531   1.483       .  S
C524        C525   1.394       .  A
C524        H533   1.081       .  S
C525        C526   1.407       .  A
C525        H534   1.082       .  S
C526        C527   1.403       .  A
C526        C529   1.480       .  S
C527        C528   1.397       .  A
C527        H535   1.084       .  S
C528        H536   1.080       .  S
C529        H537   1.087       .  S
C529        C530   1.345       .  D
C530        H538   1.085       .  S
C531        H539   1.086       .  S
C531        C532   1.346       .  D
C532        H540   1.084       .  S
C541        C542   1.415   1_655  A
C541        C549   1.558       .  S
C542        C543   1.428       .  A
C542        H551   1.082       .  S
C543        H552   1.083       .  S
C544        C545   1.413       .  A
C544        C547   1.547   1_554  S
C545        C546   1.428       .  A
C545        H553   1.082   1_554  S
C546        H554   1.083       .  S
C547        H555   1.086       .  S
C547        C548   1.382       .  D
C549        H557   1.085       .  S
C550        H558   1.085       .  S
C559        C560   1.407   1_655  A
C559        C567   1.547       .  S
C560        C561   1.412       .  A
C560        H569   1.081       .  S
C561        H570   1.083       .  S
C562        C563   1.411       .  A
C562        C565   1.526   1_554  S
C563        C564   1.426       .  A
C563        H571   1.083       .  S
C564        H572   1.083       .  S
C565        H573   1.085   1_556  S
C565        C566   1.384       .  D
C567        H575   1.085       .  S
C568        H576   1.083       .  S
