geometry optimzed in LAMMPS
_audit_creation_date              2020-11-30 
_audit_creation_method            'lammps2cif' 
_symmetry_space_group_name_H-M    'P1' 
_symmetry_Int_Tables_number       1 
_symmetry_cell_setting            triclinic 
loop_ 
_symmetry_equiv_pos_as_xyz 
  x,y,z 
_cell_length_a                    25.1861799 
_cell_length_b                    27.003205383867453 
_cell_length_c                    29.434079132454688 
_cell_angle_alpha                 90.00011835914627 
_cell_angle_beta                  90.00073043454863 
_cell_angle_gamma                 90.00096971143914 
loop_ 
_atom_site_label 
_atom_site_type_symbol 
_atom_site_fract_x 
_atom_site_fract_y 
_atom_site_fract_z 
_atom_site_charge 
N1          N  0.99430093  0.06700607  0.09317863    -0.02700
C2          C  0.94414065  0.04858682  0.08900656    -0.00100
C3          C  0.91939246  0.04523977  0.13065017    -0.23000
C4          C  0.95467550  0.06293046  0.16191364    -0.23200
C5          C  0.00039180  0.07543543  0.13860591    -0.00200
H6          H  0.87954869  0.03208550  0.13738843     0.13500
H7          H  0.94712763  0.06798114  0.19783378     0.13600
O8          O  0.91474611  0.05870500  0.01266950    -0.80200
O9          O  0.78085481  0.41766696  0.37890318    -0.64800
O10         O  0.83189538  0.99950892  0.97500573    -1.11400
C11         C  0.90358610  0.35603172  0.03571204     1.06700
O12         O  0.76948164  0.34666835  0.91678253    -0.78000
O13         O  0.76235758  0.38556130  0.00024473    -0.65600
Ni14       Ni  0.86752655  0.06028050  0.96042011     1.34900
C15         C  0.77139272  0.41717298  0.03097225     0.85500
O16         O  0.76460074  0.01196403  0.40106613    -0.78600
O17         O  0.82412435  0.07274650  0.40773392    -0.88900
C18         C  0.76131158  0.37435133  0.38241214     0.85000
O19         O  0.91848723  0.02674784  0.42400547    -0.67100
O20         O  0.85824445  0.33852305  0.02489592    -0.86400
C21         C  0.90960000  0.50019099  0.38907315     0.85900
C22         C  0.78254698  0.05425048  0.39012258     1.07400
H23         H  0.87999939  0.40012756  0.93140872     0.39200
O24         O  0.85069601  0.40835299  0.95125121    -1.09000
O25         O  0.81806964  0.43108815  0.04102054    -0.65700
Ni26       Ni  0.87514587  0.44855344  0.00020699     1.26300
O27         O  0.86577954  0.47667314  0.38376487    -0.65900
O28         O  0.91889577  0.39816242  0.02285122    -0.78200
C29         C  0.91826633  0.03081825  0.04736564     0.85300
O30         O  0.89845165  0.48808701  0.04880490    -0.65400
Ni31       Ni  0.81514678  0.34803531  0.96985708     1.27400
Ni32       Ni  0.80742769  0.45970324  0.42549137     1.26100
H33         H  0.80237716  0.00724936  0.99472777     0.39800
N34         N  0.72731928  0.35699215  0.34633812    -0.02700
C35         C  0.68264119  0.32910640  0.34977512    -0.00100
C36         C  0.65370070  0.33124383  0.30996098    -0.23000
C37         C  0.68183702  0.36036506  0.28039977    -0.23200
C38         C  0.72663599  0.37542132  0.30352607    -0.00200
H39         H  0.61570704  0.31404753  0.30343481     0.13500
H40         H  0.67164357  0.36832999  0.24542679     0.13600
N41         N  0.94976717  0.31700682  0.10379112    -0.02700
C42         C  0.99992647  0.29858621  0.10796257    -0.00100
C43         C  0.02467365  0.29523913  0.06631853    -0.23000
C44         C  0.98939114  0.31293101  0.03505560    -0.23200
C45         C  0.94367587  0.32543677  0.05836388    -0.00200
H46         H  0.06451656  0.28208425  0.05957962     0.13500
H47         H  0.99693868  0.31798153  0.99913539     0.13600
O48         O  0.02932216  0.30870462  0.18429987    -0.80200
O49         O  0.16321264  0.16766911  0.31806646    -0.64800
O50         O  0.11217195  0.24950997  0.22196408    -1.11400
C51         C  0.04048138  0.10603117  0.16125764     1.06700
O52         O  0.17458572  0.09667093  0.28018683    -0.78000
O53         O  0.18170947  0.13556409  0.19672522    -0.65600
Ni54       Ni  0.07654030  0.31027999  0.23655040     1.34900
C55         C  0.17267478  0.16717563  0.16599792     0.85500
O56         O  0.17946637  0.26196654  0.29590309    -0.78600
O57         O  0.11994072  0.32274575  0.28923787    -0.88900
C58         C  0.18275610  0.12435410  0.31455724     0.85000
O59         O  0.02557912  0.27674400  0.27296298    -0.67100
O60         O  0.08582267  0.08852347  0.17207390    -0.86400
C61         C  0.03446698  0.25018926  0.30789624     0.85900
C62         C  0.16151866  0.30425130  0.30684833     1.07400
H63         H  0.06406690  0.15012710  0.26556102     0.39200
O64         O  0.09337098  0.15835350  0.24571826    -1.09000
O65         O  0.12599806  0.18108974  0.15594931    -0.65700
Ni66       Ni  0.06892148  0.19855365  0.19676245     1.26300
O67         O  0.07828778  0.22667338  0.31320491    -0.65900
O68         O  0.02517191  0.14816166  0.17411790    -0.78200
C69         C  0.02580120  0.28081781  0.14960360     0.85300
O70         O  0.04561553  0.23808694  0.14816437    -0.65400
Ni71       Ni  0.12892020  0.09803673  0.22711258     1.27400
Ni72       Ni  0.13663952  0.20970473  0.27147821     1.26100
H73         H  0.14168995  0.25725150  0.20224223     0.39800
N74         N  0.21674852  0.10699560  0.35063114    -0.02700
C75         C  0.26142462  0.07910795  0.34719484    -0.00100
C76         C  0.29036400  0.08124425  0.38700969    -0.23000
C77         C  0.26222937  0.11036674  0.41657041    -0.23200
C78         C  0.21743212  0.12542466  0.39344341    -0.00200
H79         H  0.32835586  0.06404613  0.39353673     0.13500
H80         H  0.27242235  0.11833087  0.45154374     0.13600
N81         N  0.99429975  0.24960611  0.34317853    -0.02700
C82         C  0.94414024  0.26802622  0.33900715    -0.00100
C83         C  0.91939290  0.27137257  0.38065118    -0.23000
C84         C  0.95467551  0.25368066  0.41191401    -0.23200
C85         C  0.00039101  0.24117575  0.38860569    -0.00200
H86         H  0.87954986  0.28452710  0.38739014     0.13500
H87         H  0.94712798  0.24862968  0.44783417     0.13600
O88         O  0.76948317  0.46994380  0.16678322    -0.80200
O89         O  0.89845128  0.32852598  0.29880590    -0.64800
O90         O  0.85069737  0.40826027  0.20125191    -1.11400
C91         C  0.78254800  0.26236350  0.14012161     1.06700
O92         O  0.91474465  0.25790868  0.26266982    -0.78000
O93         O  0.91848759  0.28986907  0.17400665    -0.65600
Ni94       Ni  0.81514862  0.46857732  0.21985759     1.34900
C95         C  0.90960004  0.31642406  0.13907348     0.85500
O96         O  0.91889614  0.41845106  0.27285254    -0.78600
O97         O  0.85824621  0.47809003  0.27489634    -0.88900
C98         C  0.91826553  0.28579509  0.29736634     0.85000
O99         O  0.76235880  0.43105034  0.25024479    -0.67100
O100        O  0.82412555  0.24386847  0.15773218    -0.86400
C101        C  0.77139295  0.39943860  0.28097205     0.85900
C102        C  0.90358724  0.46058176  0.28571269     1.07400
H103        H  0.80237681  0.30936250  0.24472761     0.39200
O104        O  0.83189524  0.31710394  0.22500582    -1.09000
O105        O  0.86577963  0.33994054  0.13376498    -0.65700
Ni106      Ni  0.80742826  0.35690962  0.17549179     1.26300
O107        O  0.81806947  0.38552397  0.29102075    -0.65900
O108        O  0.76460076  0.30464841  0.15106686    -0.78200
C109        C  0.76131273  0.44226073  0.13241272     0.85300
O110        O  0.78085582  0.39894560  0.12890357    -0.65400
Ni111      Ni  0.86752624  0.25633367  0.21041949     1.27400
Ni112      Ni  0.87514610  0.36805967  0.25020776     1.26100
H113        H  0.88000191  0.41648649  0.18140908     0.39800
N114        N  0.72732054  0.45961941  0.09633873    -0.02700
C115        C  0.68264463  0.48750725  0.09977500    -0.00100
C116        C  0.65370506  0.98537101  0.05996023    -0.23000
C117        C  0.68183952  0.45624843  0.03039951    -0.23200
C118        C  0.72663667  0.44119027  0.05352649    -0.00200
H119        H  0.61571311  0.00256901  0.05343338     0.13500
H120        H  0.67164634  0.44828423  0.99542623     0.13600
N121        N  0.94976808  0.99960690  0.35379160    -0.02700
C122        C  0.99992853  0.01802575  0.35796369    -0.00100
C123        C  0.02467703  0.02137188  0.31632013    -0.23000
C124        C  0.98939385  0.50368134  0.28505669    -0.23200
C125        C  0.94367733  0.49117701  0.30836438    -0.00200
H126        H  0.06452099  0.03452564  0.30958188     0.13500
H127        H  0.99694180  0.49863024  0.24913662     0.13600
O128        O  0.17458523  0.21994646  0.53018741    -0.80200
O129        O  0.04561748  0.07852595  0.39816489    -0.64800
O130        O  0.09337174  0.15826089  0.49571848    -1.11400
C131        C  0.16152226  0.01236428  0.55684742     1.06700
O132        O  0.02932288  0.00790843  0.43430091    -0.78000
O133        O  0.02558182  0.03986549  0.52296475    -0.65600
Ni134      Ni  0.12892034  0.21857884  0.47711260     1.34900
C135        C  0.03446889  0.06642247  0.05789696     0.85500
O136        O  0.02517223  0.16845039  0.42411809    -0.78600
O137        O  0.08582271  0.22809052  0.42207354    -0.88900
C138        C  0.02580273  0.03579480  0.39960451     0.85000
O139        O  0.18171020  0.18105320  0.44672524    -0.67100
O140        O  0.11994514  0.49386776  0.53923611    -0.86400
C141        C  0.17267563  0.14944144  0.41599765     0.85900
C142        C  0.04048131  0.21058129  0.41125735     1.07400
H143        H  0.14169154  0.05936502  0.45224262     0.39200
O144        O  0.11217344  0.06710516  0.47196431    -1.09000
O145        O  0.07828902  0.08994080  0.56320513    -0.65700
Ni146      Ni  0.13664061  0.10691112  0.52147855     1.26300
O147        O  0.12599890  0.13552580  0.40594922    -0.65900
O148        O  0.17946808  0.05465086  0.54590382    -0.78200
C149        C  0.18275552  0.19226351  0.56455781     0.85300
O150        O  0.16321276  0.14894772  0.56806675    -0.65400
Ni151      Ni  0.07654280  0.00633330  0.48655005     1.27400
Ni152      Ni  0.06892261  0.11806001  0.44676269     1.26100
H153        H  0.06406769  0.16648627  0.51556117     0.39800
N154        N  0.21674759  0.20962290  0.10063192    -0.02700
C155        C  0.26142552  0.23750891  0.59719490    -0.00100
C156        C  0.29036609  0.23537156  0.13700896    -0.23000
C157        C  0.26223024  0.20624990  0.16657010    -0.23200
C158        C  0.21743131  0.19119346  0.14344387    -0.00200
H159        H  0.32835978  0.25256785  0.14353494     0.13500
H160        H  0.27242408  0.19828461  0.20154293     0.13600
N161        N  0.44976923  0.31700648  0.09317989    -0.02700
C162        C  0.49992808  0.29858492  0.08900838    -0.00100
C163        C  0.52467613  0.29523730  0.13065254    -0.23000
C164        C  0.48939476  0.31292993  0.16191550    -0.23200
C165        C  0.44367897  0.32543639  0.13860729    -0.00200
H166        H  0.56451887  0.28208150  0.13739155     0.13500
H167        H  0.49694327  0.31798006  0.19783579     0.13600
O168        O  0.67458131  0.09666886  0.91678180    -0.80200
O169        O  0.54561394  0.23808439  0.04880542    -0.64800
O170        O  0.59336782  0.15835210  0.95125044    -1.11400
C171        C  0.66151629  0.30425005  0.39012311     1.06700
O172        O  0.52932247  0.30870328  0.01267113    -0.78000
O173        O  0.52557758  0.27674209  0.42400734    -0.65600
Ni174      Ni  0.62891547  0.09803401  0.96985534     1.34900
C175        C  0.53446525  0.25018863  0.38907326     0.85500
O176        O  0.52516828  0.14815973  0.02284957    -0.78600
O177        O  0.58581751  0.08852015  0.02489316    -0.88900
C178        C  0.52580138  0.28081608  0.04736702     0.85000
O179        O  0.68170537  0.13555960  0.00024480    -0.67100
O180        O  0.61993824  0.32274411  0.40773296    -0.86400
C181        C  0.67267136  0.16717116  0.03097215     0.85900
C182        C  0.54047712  0.10602903  0.03571008     1.07400
H183        H  0.64168754  0.25724869  0.99472901     0.39200
O184        O  0.61217020  0.24950791  0.97500683    -1.09000
O185        O  0.57828603  0.22667305  0.38376460    -0.65700
Ni186      Ni  0.63663738  0.20970347  0.42549248     1.26300
O187        O  0.62599502  0.18108566  0.04102039    -0.65900
O188        O  0.67946468  0.26196569  0.40106930    -0.78200
C189        C  0.68275284  0.12435326  0.38241255     0.85300
O190        O  0.66321028  0.16766866  0.37890418    -0.65400
Ni191      Ni  0.57653917  0.31027833  0.96042048     1.27400
Ni192      Ni  0.56891882  0.19855157  0.00020667     1.26100
H193        H  0.56406399  0.15012679  0.93140714     0.39800
N194        N  0.71674537  0.10699585  0.34633890    -0.02700
C195        C  0.76142107  0.07910761  0.34977513    -0.00100
C196        C  0.79036037  0.08124474  0.30996094    -0.23000
C197        C  0.76222627  0.11036871  0.28040067    -0.23200
C198        C  0.71742940  0.12542658  0.30352729    -0.00200
H199        H  0.82835192  0.06404622  0.30343407     0.13500
H200        H  0.77241921  0.11833365  0.24542774     0.13600
N201        N  0.49429803  0.06700542  0.10379035    -0.02700
C202        C  0.44413789  0.04858626  0.10796302    -0.00100
C203        C  0.41938809  0.04523892  0.06631955    -0.23000
C204        C  0.45466999  0.06292941  0.03505569    -0.23200
C205        C  0.50038742  0.07543443  0.05836288    -0.00200
H206        H  0.37954414  0.03208441  0.05958158     0.13500
H207        H  0.44712081  0.06797951  0.99913554     0.13600
O208        O  0.26948430  0.34666873  0.28018834    -0.80200
O209        O  0.39845278  0.48808542  0.14816603    -0.64800
O210        O  0.35069854  0.40835294  0.24572014    -1.11400
C211        C  0.28254988  0.05425089  0.30684722     1.06700
O212        O  0.41474563  0.05870481  0.18430043    -0.78000
O213        O  0.41848913  0.02674672  0.27296460    -0.65600
Ni214      Ni  0.31514995  0.34803449  0.22711447     1.34900
C215        C  0.40960212  0.50019113  0.30789752     0.85500
O216        O  0.41889851  0.39816162  0.17412114    -0.78600
O217        O  0.35824825  0.33852119  0.17207650    -0.88900
C218        C  0.41826569  0.03081752  0.14960453     0.85000
O219        O  0.26236045  0.38555924  0.19672487    -0.67100
O220        O  0.32412759  0.07274618  0.28923681    -0.86400
C221        C  0.27139539  0.41717064  0.16599740     0.85900
C222        C  0.40358920  0.35603071  0.16125992     1.07400
H223        H  0.30237862  0.00724813  0.20224151     0.39200
O224        O  0.33189691  0.99950821  0.22196416    -1.09000
O225        O  0.36578144  0.47667415  0.31320601    -0.65700
Ni226      Ni  0.30742971  0.45970354  0.27147856     1.26300
O227        O  0.31807219  0.43108562  0.15594983    -0.65900
O228        O  0.26460267  0.01196493  0.29590249    -0.78200
C229        C  0.26131420  0.37435267  0.31455818     0.85300
O230        O  0.28085744  0.41766832  0.31806677    -0.65400
Ni231      Ni  0.36752784  0.06028006  0.23655019     1.27400
Ni232      Ni  0.37514801  0.44855261  0.19676428     1.26100
H233        H  0.38000294  0.40012788  0.26556383     0.39800
N234        N  0.22732213  0.35699473  0.35063223    -0.02700
C235        C  0.18264456  0.32910811  0.34719586    -0.00100
C236        C  0.15370484  0.33124621  0.38700973    -0.23000
C237        C  0.18184084  0.36036939  0.41657015    -0.23200
C238        C  0.22663895  0.37542569  0.39344368    -0.00200
H239        H  0.11571191  0.31404902  0.39353625     0.13500
H240        H  0.17164800  0.36833523  0.45154289     0.13600
N241        N  0.49429778  0.24960663  0.35379032    -0.02700
C242        C  0.44413870  0.26802763  0.35796186    -0.00100
C243        C  0.41939030  0.27137433  0.31631782    -0.23000
C244        C  0.45467176  0.25368185  0.28505487    -0.23200
C245        C  0.50038790  0.24117629  0.30836297    -0.00200
H246        H  0.37954733  0.28452953  0.30957889     0.13500
H247        H  0.44712310  0.24863132  0.24913465     0.12800
O248        O  0.41474444  0.25791011  0.43429914    -0.80200
O249        O  0.28085810  0.39894592  0.56806574    -0.64800
O250        O  0.33189692  0.31710606  0.47196308    -1.11400
C251        C  0.40359137  0.46058410  0.41125939     1.06700
O252        O  0.26948770  0.46994576  0.53018811    -0.78000
O253        O  0.26236263  0.43105492  0.44672518    -0.65600
Ni254      Ni  0.36752745  0.25633544  0.48654952     1.34900
C255        C  0.27139616  0.39944325  0.41599780     0.85500
O256        O  0.26460257  0.30464936  0.54590074    -0.78600
O257        O  0.32412801  0.24387011  0.53923680    -0.88900
C258        C  0.26131595  0.44226144  0.56455739     0.85000
O259        O  0.41848928  0.28987120  0.52296285    -0.67100
O260        O  0.35825118  0.47809353  0.42207630    -0.86400
C261        C  0.40960186  0.31642487  0.05789685     0.85900
C262        C  0.28255043  0.26236481  0.55684682     1.07400
H263        H  0.38000425  0.41648674  0.51556230     0.39200
O264        O  0.35070043  0.40826175  0.49571922    -1.09000
O265        O  0.31807235  0.38552832  0.40594946    -0.65700
Ni266      Ni  0.37514860  0.36806185  0.44676294     1.26300
O267        O  0.36578143  0.33994094  0.56320535    -0.65900
O268        O  0.41889961  0.41845317  0.42411978    -0.78200
C269        C  0.41826547  0.28579694  0.39960303     0.85300
O270        O  0.39845286  0.32852860  0.39816426    -0.65400
Ni271      Ni  0.31515323  0.46858011  0.47711431     1.27400
Ni272      Ni  0.30743032  0.35691091  0.52147738     1.26100
H273        H  0.30237850  0.30936518  0.45224033     0.39800
N274        N  0.22732359  0.45961908  0.10063110    -0.02700
C275        C  0.18264814  0.48750757  0.59719494    -0.00100
C276        C  0.15370877  0.98537069  0.13700905    -0.23000
C277        C  0.18184258  0.45624646  0.16656932    -0.23200
C278        C  0.22663936  0.44118833  0.14344269    -0.00200
H279        H  0.11571716  0.00256915  0.14353572     0.13500
H280        H  0.17164952  0.44828140  0.20154220     0.13600
N281        N  0.44977084  0.99960758  0.34317933    -0.02700
C282        C  0.49993121  0.01802623  0.33900667    -0.00100
C283        C  0.52468127  0.02137270  0.38065009    -0.23000
C284        C  0.48939939  0.50368234  0.41191390    -0.23200
C285        C  0.44368163  0.49117816  0.38860675    -0.00200
H286        H  0.56452543  0.03452664  0.38738804     0.13500
H287        H  0.49694874  0.49863180  0.44783398     0.13600
O288        O  0.52932358  0.00790832  0.26266924    -0.80200
O289        O  0.66321023  0.14894625  0.12890326    -0.64800
O290        O  0.61217185  0.06710563  0.22500572    -1.11400
C291        C  0.54047822  0.21058249  0.28571035     1.06700
O292        O  0.67458264  0.21994598  0.16678158    -0.78000
O293        O  0.68170744  0.18105535  0.25024509    -0.65600
Ni294      Ni  0.57654144  0.00633351  0.21041957     1.34900
C295        C  0.67267299  0.14944376  0.28097255     0.85500
O296        O  0.67946598  0.05464997  0.15106741    -0.78600
O297        O  0.61994191  0.49386796  0.15773315    -0.88900
C298        C  0.68275296  0.19226208  0.13241174     0.85000
O299        O  0.52557986  0.03986639  0.17400508    -0.67100
O300        O  0.58581896  0.22809251  0.27489376    -0.86400
C301        C  0.53446659  0.06642227  0.13907230     0.85900
C302        C  0.66151931  0.01236386  0.14012267     1.07400
H303        H  0.56406543  0.16648548  0.18140684     0.39200
O304        O  0.59336935  0.15826084  0.20125005    -1.09000
O305        O  0.62599639  0.13552812  0.29102013    -0.65700
Ni306      Ni  0.56892040  0.11806079  0.25020584     1.26300
O307        O  0.57828696  0.08993981  0.13376403    -0.65900
O308        O  0.52516949  0.16845138  0.27284918    -0.78200
C309        C  0.52580343  0.03579536  0.29736530     0.85300
O310        O  0.54561602  0.07852747  0.29880397    -0.65400
Ni311      Ni  0.62891729  0.21857963  0.21985566     1.27400
Ni312      Ni  0.63663858  0.10691072  0.17549146     1.26100
H313        H  0.64168928  0.05936612  0.24472769     0.39800
N314        N  0.71674478  0.20962024  0.09633764    -0.02700
C315        C  0.76142209  0.23750712  0.09977398    -0.00100
C316        C  0.79036188  0.23536914  0.05996016    -0.23000
C317        C  0.76222623  0.20624567  0.03039978    -0.23200
C318        C  0.71742821  0.19118918  0.05352623    -0.00200
H319        H  0.82835483  0.25256635  0.05343381     0.13500
H320        H  0.77241929  0.19827961  0.99542712     0.13600
N321        N  0.99430090  0.06700610  0.59317867    -0.02700
C322        C  0.94414063  0.04858686  0.58900657    -0.00100
C323        C  0.91939240  0.04523978  0.63065018    -0.23000
C324        C  0.95467545  0.06293048  0.66191366    -0.23200
C325        C  0.00039179  0.07543543  0.63860594    -0.00200
H326        H  0.87954867  0.03208540  0.63738843     0.13500
H327        H  0.94712758  0.06798112  0.69783380     0.13600
O328        O  0.91474619  0.05870500  0.51266946    -0.80200
O329        O  0.78085492  0.41766696  0.87890316    -0.64800
O330        O  0.83189538  0.99950889  0.47500573    -1.11400
C331        C  0.90358605  0.35603173  0.53571207     1.06700
O332        O  0.76948156  0.34666835  0.41678255    -0.78000
O333        O  0.76235754  0.38556129  0.50024470    -0.65600
Ni334      Ni  0.86752648  0.06028050  0.46042012     1.34900
C335        C  0.77139269  0.41717293  0.53097224     0.85500
O336        O  0.76460077  0.01196409  0.90106618    -0.78600
O337        O  0.82412454  0.07274647  0.90773387    -0.88900
C338        C  0.76131164  0.37435135  0.88241215     0.85000
O339        O  0.91848726  0.02674779  0.92400549    -0.67100
O340        O  0.85824441  0.33852305  0.52489592    -0.86400
C341        C  0.90960002  0.50019099  0.88907316     0.85900
C342        C  0.78254710  0.05425051  0.89012259     1.07400
H343        H  0.87999971  0.40012746  0.43140859     0.39200
O344        O  0.85069604  0.40835296  0.45125120    -1.09000
O345        O  0.81806964  0.43108798  0.54102058    -0.65700
Ni346      Ni  0.87514586  0.44855341  0.50020700     1.26300
O347        O  0.86577953  0.47667317  0.88376490    -0.65900
O348        O  0.91889572  0.39816243  0.52285124    -0.78200
C349        C  0.91826644  0.03081826  0.54736561     0.85300
O350        O  0.89845159  0.48808701  0.54880492    -0.65400
Ni351      Ni  0.81514676  0.34803531  0.46985706     1.27400
Ni352      Ni  0.80742765  0.45970326  0.92549140     1.26100
H353        H  0.80237715  0.00724929  0.49472774     0.39800
N354        N  0.72731927  0.35699222  0.84633815    -0.02700
C355        C  0.68264118  0.32910643  0.84977514    -0.00100
C356        C  0.65370071  0.33124379  0.80996098    -0.23000
C357        C  0.68183701  0.36036507  0.78039978    -0.23200
C358        C  0.72663597  0.37542138  0.80352610    -0.00200
H359        H  0.61570708  0.31404743  0.80343478     0.13500
H360        H  0.67164355  0.36833004  0.74542681     0.13600
N361        N  0.94976722  0.31700686  0.60379112    -0.02700
C362        C  0.99992648  0.29858621  0.60796254    -0.00100
C363        C  0.02467363  0.29523912  0.56631847    -0.23000
C364        C  0.98939108  0.31293102  0.53505556    -0.23200
C365        C  0.94367584  0.32543679  0.55836389    -0.00200
H366        H  0.06451653  0.28208424  0.55957950     0.13500
H367        H  0.99693855  0.31798157  0.49913534     0.13600
O368        O  0.02932208  0.30870463  0.68429986    -0.80200
O369        O  0.16321255  0.16766909  0.81806649    -0.64800
O370        O  0.11217187  0.24950999  0.72196409    -1.11400
C371        C  0.04048142  0.10603116  0.66125765     1.06700
O372        O  0.17458582  0.09667098  0.78018678    -0.78000
O373        O  0.18170942  0.13556412  0.69672518    -0.65600
Ni374      Ni  0.07654022  0.31028000  0.73655040     1.34900
C375        C  0.17267474  0.16717562  0.66599783     0.85500
O376        O  0.17946640  0.26196656  0.79590306    -0.78600
O377        O  0.11994067  0.32274571  0.78923789    -0.88900
C378        C  0.18275609  0.12435411  0.81455725     0.85000
O379        O  0.02557908  0.27674401  0.77296301    -0.67100
O380        O  0.08582274  0.08852350  0.67207387    -0.86400
C381        C  0.03446697  0.25018929  0.80789628     0.85900
C382        C  0.16151864  0.30425130  0.80684832     1.07400
H383        H  0.06406683  0.15012712  0.76556103     0.39200
O384        O  0.09337092  0.15835352  0.74571828    -1.09000
O385        O  0.12599802  0.18108980  0.65594927    -0.65700
Ni386      Ni  0.06892143  0.19855365  0.69676246     1.26300
O387        O  0.07828777  0.22667341  0.81320494    -0.65900
O388        O  0.02517192  0.14816164  0.67411792    -0.78200
C389        C  0.02580118  0.28081782  0.64960358     0.85300
O390        O  0.04561545  0.23808693  0.64816438    -0.65400
Ni391      Ni  0.12892021  0.09803677  0.72711258     1.27400
Ni392      Ni  0.13663948  0.20970475  0.77147822     1.26100
H393        H  0.14168986  0.25725152  0.70224223     0.39800
N394        N  0.21674851  0.10699562  0.85063113    -0.02700
C395        C  0.26142465  0.07910802  0.84719480    -0.00100
C396        C  0.29036397  0.08124426  0.88700969    -0.23000
C397        C  0.26222931  0.11036672  0.91657042    -0.23200
C398        C  0.21743208  0.12542464  0.89344342    -0.00200
H399        H  0.32835583  0.06404614  0.89353677     0.13500
H400        H  0.27242224  0.11833086  0.95154375     0.13600
N401        N  0.99429974  0.24960612  0.84317857    -0.02700
C402        C  0.94414023  0.26802620  0.83900716    -0.00100
C403        C  0.91939284  0.27137257  0.88065117    -0.23000
C404        C  0.95467543  0.25368066  0.91191402    -0.23200
C405        C  0.00039097  0.24117573  0.88860574    -0.00200
H406        H  0.87954980  0.28452713  0.88739010     0.13500
H407        H  0.94712787  0.24862969  0.94783418     0.13600
O408        O  0.76948319  0.46994382  0.66678324    -0.80200
O409        O  0.89845148  0.32852605  0.79880587    -0.64800
O410        O  0.85069734  0.40826026  0.70125193    -1.11400
C411        C  0.78254800  0.26236350  0.64012163     1.06700
O412        O  0.91474458  0.25790866  0.76266985    -0.78000
O413        O  0.91848762  0.28986904  0.67400665    -0.65600
Ni414      Ni  0.81514867  0.46857733  0.71985761     1.34900
C415        C  0.90960011  0.31642411  0.63907351     0.85500
O416        O  0.91889621  0.41845109  0.77285251    -0.78600
O417        O  0.85824625  0.47809000  0.77489638    -0.88900
C418        C  0.91826561  0.28579512  0.79736633     0.85000
O419        O  0.76235885  0.43105040  0.75024481    -0.67100
O420        O  0.82412552  0.24386844  0.65773221    -0.86400
C421        C  0.77139297  0.39943864  0.78097207     0.85900
C422        C  0.90358729  0.46058176  0.78571270     1.07400
H423        H  0.80237674  0.30936254  0.74472762     0.39200
O424        O  0.83189520  0.31710395  0.72500586    -1.09000
O425        O  0.86577974  0.33994063  0.63376503    -0.65700
Ni426      Ni  0.80742823  0.35690962  0.67549181     1.26300
O427        O  0.81806947  0.38552397  0.79102079    -0.65900
O428        O  0.76460083  0.30464845  0.65106682    -0.78200
C429        C  0.76131269  0.44226073  0.63241275     0.85300
O430        O  0.78085577  0.39894560  0.62890359    -0.65400
Ni431      Ni  0.86752619  0.25633368  0.71041952     1.27400
Ni432      Ni  0.87514609  0.36805968  0.75020779     1.26100
H433        H  0.88000104  0.41648623  0.68140965     0.39800
N434        N  0.72732051  0.45961940  0.59633873    -0.02700
C435        C  0.68264458  0.48750722  0.59977500    -0.00100
C436        C  0.65370501  0.98537100  0.55996023    -0.23000
C437        C  0.68183946  0.45624844  0.53039951    -0.23200
C438        C  0.72663665  0.44119029  0.55352648    -0.00200
H439        H  0.61571309  0.00256905  0.55343336     0.13500
H440        H  0.67164625  0.44828427  0.49542624     0.13600
N441        N  0.94976803  0.99960692  0.85379159    -0.02700
C442        C  0.99992849  0.01802576  0.85796366    -0.00100
C443        C  0.02467702  0.02137189  0.81632015    -0.23000
C444        C  0.98939390  0.50368134  0.78505671    -0.23200
C445        C  0.94367735  0.49117704  0.80836438    -0.00200
H446        H  0.06452098  0.03452568  0.80958194     0.13500
H447        H  0.99694194  0.49863022  0.74913666     0.13600
O448        O  0.17458524  0.21994644  0.03018742    -0.80200
O449        O  0.04561748  0.07852597  0.89816479    -0.64800
O450        O  0.09337172  0.15826078  0.99571849    -1.11400
C451        C  0.16152225  0.01236425  0.05684738     1.06700
O452        O  0.02932279  0.00790849  0.93430084    -0.78000
O453        O  0.02558187  0.03986548  0.02296471    -0.65600
Ni454      Ni  0.12892033  0.21857879  0.97711261     1.34900
C455        C  0.03446883  0.06642250  0.55789699     0.85500
O456        O  0.02517220  0.16845034  0.92411811    -0.78600
O457        O  0.08582272  0.22809043  0.92207352    -0.88900
C458        C  0.02580271  0.03579483  0.89960442     0.85000
O459        O  0.18171023  0.18105323  0.94672525    -0.67100
O460        O  0.11994517  0.49386770  0.03923601    -0.86400
C461        C  0.17267563  0.14944146  0.91599768     0.85900
C462        C  0.04048128  0.21058125  0.91125739     1.07400
H463        H  0.14169170  0.05936481  0.95224239     0.39200
O464        O  0.11217341  0.06710508  0.97196425    -1.09000
O465        O  0.07828907  0.08994077  0.06320512    -0.65700
Ni466      Ni  0.13664066  0.10691105  0.02147851     1.26300
O467        O  0.12599888  0.13552583  0.90594926    -0.65900
O468        O  0.17946803  0.05465085  0.04590384    -0.78200
C469        C  0.18275550  0.19226351  0.06455783     0.85300
O470        O  0.16321282  0.14894768  0.06806673    -0.65400
Ni471      Ni  0.07654277  0.00633327  0.98654994     1.27400
Ni472      Ni  0.06892261  0.11805994  0.94676264     1.26100
H473        H  0.06406826  0.16648589  0.01556079     0.39800
N474        N  0.21674771  0.20962281  0.60063184    -0.02700
C475        C  0.26142544  0.23750892  0.09719493    -0.00100
C476        C  0.29036611  0.23537161  0.63700899    -0.23000
C477        C  0.26223021  0.20624993  0.66657010    -0.23200
C478        C  0.21743134  0.19119342  0.64344380    -0.00200
H479        H  0.32835976  0.25256794  0.64353505     0.13500
H480        H  0.27242394  0.19828468  0.70154295     0.13600
N481        N  0.44976919  0.31700642  0.59317988    -0.02700
C482        C  0.49992798  0.29858478  0.58900837    -0.00100
C483        C  0.52467606  0.29523722  0.63065253    -0.23000
C484        C  0.48939472  0.31292994  0.66191547    -0.23200
C485        C  0.44367891  0.32543636  0.63860729    -0.00200
H486        H  0.56451879  0.28208140  0.63739153     0.13500
H487        H  0.49694321  0.31798009  0.69783577     0.13600
O488        O  0.67458131  0.09666885  0.41678180    -0.80200
O489        O  0.54561392  0.23808437  0.54880540    -0.64800
O490        O  0.59336777  0.15835210  0.45125042    -1.11400
C491        C  0.66151629  0.30425007  0.89012313     1.06700
O492        O  0.52932244  0.30870327  0.51267115    -0.78000
O493        O  0.52557760  0.27674206  0.92400733    -0.65600
Ni494      Ni  0.62891547  0.09803400  0.46985533     1.34900
C495        C  0.53446524  0.25018854  0.88907327     0.85500
O496        O  0.52516833  0.14815976  0.52284961    -0.78600
O497        O  0.58581750  0.08852010  0.52489315    -0.88900
C498        C  0.52580131  0.28081604  0.54736700     0.85000
O499        O  0.68170541  0.13555958  0.50024477    -0.67100
O500        O  0.61993821  0.32274408  0.90773295    -0.86400
C501        C  0.67267142  0.16717118  0.53097209     0.85900
C502        C  0.54047713  0.10602903  0.53571009     1.07400
H503        H  0.64168842  0.25724889  0.49472954     0.39200
O504        O  0.61217019  0.24950790  0.47500680    -1.09000
O505        O  0.57828602  0.22667297  0.88376459    -0.65700
Ni506      Ni  0.63663738  0.20970348  0.92549248     1.26300
O507        O  0.62599508  0.18108575  0.54102029    -0.65900
O508        O  0.67946472  0.26196573  0.90106934    -0.78200
C509        C  0.68275290  0.12435330  0.88241259     0.85300
O510        O  0.66321030  0.16766868  0.87890420    -0.65400
Ni511      Ni  0.57653919  0.31027833  0.46042051     1.27400
Ni512      Ni  0.56891884  0.19855160  0.50020666     1.26100
H513        H  0.56406387  0.15012678  0.43140712     0.39800
N514        N  0.71674548  0.10699591  0.84633894    -0.02700
C515        C  0.76142116  0.07910763  0.84977515    -0.00100
C516        C  0.79036043  0.08124473  0.80996093    -0.23000
C517        C  0.76222636  0.11036875  0.78040066    -0.23200
C518        C  0.71742945  0.12542660  0.80352729    -0.00200
H519        H  0.82835195  0.06404615  0.80343409     0.13500
H520        H  0.77241934  0.11833370  0.74542774     0.13600
N521        N  0.49429801  0.06700542  0.60379036    -0.02700
C522        C  0.44413790  0.04858618  0.60796303    -0.00100
C523        C  0.41938806  0.04523893  0.56631958    -0.23000
C524        C  0.45466992  0.06292947  0.53505571    -0.23200
C525        C  0.50038737  0.07543448  0.55836290    -0.00200
H526        H  0.37954408  0.03208447  0.55958164     0.13500
H527        H  0.44712065  0.06797961  0.49913558     0.13600
O528        O  0.26948421  0.34666875  0.78018834    -0.80200
O529        O  0.39845292  0.48808538  0.64816608    -0.64800
O530        O  0.35069844  0.40835295  0.74572014    -1.11400
C531        C  0.28254991  0.05425096  0.80684717     1.06700
O532        O  0.41474565  0.05870474  0.68430041    -0.78000
O533        O  0.41848915  0.02674669  0.77296463    -0.65600
Ni534      Ni  0.31514985  0.34803450  0.72711449     1.34900
C535        C  0.40960218  0.50019115  0.80789753     0.85500
O536        O  0.41889842  0.39816156  0.67412116    -0.78600
O537        O  0.35824814  0.33852115  0.67207651    -0.88900
C538        C  0.41826568  0.03081744  0.64960452     0.85000
O539        O  0.26236037  0.38555925  0.69672489    -0.67100
O540        O  0.32412764  0.07274625  0.78923675    -0.86400
C541        C  0.27139533  0.41717066  0.66599742     0.85900
C542        C  0.40358910  0.35603065  0.66125994     1.07400
H543        H  0.30237860  0.00724822  0.70224153     0.39200
O544        O  0.33189690  0.99950826  0.72196418    -1.09000
O545        O  0.36578143  0.47667423  0.81320601    -0.65700
Ni546      Ni  0.30742965  0.45970357  0.77147855     1.26300
O547        O  0.31807212  0.43108564  0.65594985    -0.65900
O548        O  0.26460273  0.01196497  0.79590251    -0.78200
C549        C  0.26131412  0.37435269  0.81455818     0.85300
O550        O  0.28085735  0.41766834  0.81806677    -0.65400
Ni551      Ni  0.36752792  0.06028007  0.73655018     1.27400
Ni552      Ni  0.37514798  0.44855260  0.69676429     1.26100
H553        H  0.38000283  0.40012789  0.76556385     0.39800
N554        N  0.22732207  0.35699474  0.85063222    -0.02700
C555        C  0.18264450  0.32910812  0.84719584    -0.00100
C556        C  0.15370476  0.33124625  0.88700971    -0.23000
C557        C  0.18184073  0.36036946  0.91657012    -0.23200
C558        C  0.22663889  0.37542573  0.89344368    -0.00200
H559        H  0.11571184  0.31404900  0.89353622     0.13500
H560        H  0.17164787  0.36833532  0.95154285     0.13600
N561        N  0.49429777  0.24960660  0.85379031    -0.02700
C562        C  0.44413872  0.26802763  0.85796185    -0.00100
C563        C  0.41939027  0.27137433  0.81631781    -0.23000
C564        C  0.45467174  0.25368187  0.78505486    -0.23200
C565        C  0.50038789  0.24117632  0.80836296    -0.00200
H566        H  0.37954729  0.28452952  0.80957885     0.13500
H567        H  0.44712310  0.24863129  0.74913464     0.12800
O568        O  0.41474458  0.25791014  0.93429917    -0.80200
O569        O  0.28085812  0.39894594  0.06806575    -0.64800
O570        O  0.33189686  0.31710606  0.97196305    -1.11400
C571        C  0.40359140  0.46058408  0.91125938     1.06700
O572        O  0.26948764  0.46994574  0.03018806    -0.78000
O573        O  0.26236269  0.43105495  0.94672519    -0.65600
Ni574      Ni  0.36752747  0.25633545  0.98654951     1.34900
C575        C  0.27139616  0.39944326  0.91599781     0.85500
O576        O  0.26460251  0.30464933  0.04590072    -0.78600
O577        O  0.32412800  0.24387009  0.03923682    -0.88900
C578        C  0.26131591  0.44226144  0.06455736     0.85000
O579        O  0.41848929  0.28987122  0.02296286    -0.67100
O580        O  0.35825123  0.47809350  0.92207630    -0.86400
C581        C  0.40960187  0.31642487  0.55789684     0.85900
C582        C  0.28255039  0.26236478  0.05684682     1.07400
H583        H  0.38000488  0.41648678  0.01556268     0.39200
O584        O  0.35070045  0.40826171  0.99571924    -1.09000
O585        O  0.31807235  0.38552833  0.90594946    -0.65700
Ni586      Ni  0.37514864  0.36806186  0.94676297     1.26300
O587        O  0.36578135  0.33994086  0.06320536    -0.65900
O588        O  0.41889967  0.41845318  0.92411983    -0.78200
C589        C  0.41826560  0.28579696  0.89960304     0.85300
O590        O  0.39845301  0.32852864  0.89816429    -0.65400
Ni591      Ni  0.31515332  0.46858010  0.97711434     1.27400
Ni592      Ni  0.30743030  0.35691092  0.02147739     1.26100
H593        H  0.30237845  0.30936518  0.95224031     0.39800
N594        N  0.22732363  0.45961909  0.60063112    -0.02700
C595        C  0.18264816  0.48750767  0.09719496    -0.00100
C596        C  0.15370871  0.98537067  0.63700906    -0.23000
C597        C  0.18184254  0.45624645  0.66656932    -0.23200
C598        C  0.22663933  0.44118834  0.64344271    -0.00200
H599        H  0.11571709  0.00256911  0.64353574     0.13500
H600        H  0.17164944  0.44828145  0.70154221     0.13600
N601        N  0.44977084  0.99960756  0.84317936    -0.02700
C602        C  0.49993120  0.01802623  0.83900668    -0.00100
C603        C  0.52468129  0.02137274  0.88065008    -0.23000
C604        C  0.48939942  0.50368217  0.91191390    -0.23200
C605        C  0.44368164  0.49117816  0.88860676    -0.00200
H606        H  0.56452545  0.03452672  0.88738800     0.13500
H607        H  0.49694873  0.49863157  0.94783397     0.13600
O608        O  0.52932344  0.00790831  0.76266920    -0.80200
O609        O  0.66321020  0.14894620  0.62890324    -0.64800
O610        O  0.61217181  0.06710564  0.72500571    -1.11400
C611        C  0.54047816  0.21058249  0.78571036     1.06700
O612        O  0.67458253  0.21994594  0.66678155    -0.78000
O613        O  0.68170736  0.18105536  0.75024510    -0.65600
Ni614      Ni  0.57654142  0.00633352  0.71041959     1.34900
C615        C  0.67267296  0.14944376  0.78097256     0.85500
O616        O  0.67946597  0.05465001  0.65106731    -0.78600
O617        O  0.61994197  0.49386801  0.65773318    -0.88900
C618        C  0.68275292  0.19226202  0.63241174     0.85000
O619        O  0.52557988  0.03986640  0.67400508    -0.67100
O620        O  0.58581890  0.22809251  0.77489376    -0.86400
C621        C  0.53446659  0.06642229  0.63907230     0.85900
C622        C  0.66151928  0.01236388  0.64012263     1.07400
H623        H  0.56406533  0.16648548  0.68140687     0.39200
O624        O  0.59336925  0.15826083  0.70125006    -1.09000
O625        O  0.62599635  0.13552814  0.79102015    -0.65700
Ni626      Ni  0.56892040  0.11806075  0.75020588     1.26300
O627        O  0.57828692  0.08993986  0.63376402    -0.65900
O628        O  0.52516942  0.16845136  0.77284922    -0.78200
C629        C  0.52580344  0.03579531  0.79736530     0.85300
O630        O  0.54561621  0.07852735  0.79880401    -0.65400
Ni631      Ni  0.62891721  0.21857963  0.71985566     1.27400
Ni632      Ni  0.63663856  0.10691072  0.67549146     1.26100
H633        H  0.64168987  0.05936598  0.74472815     0.39800
N634        N  0.71674481  0.20962017  0.59633765    -0.02700
C635        C  0.76142208  0.23750715  0.59977399    -0.00100
C636        C  0.79036193  0.23536920  0.55996020    -0.23000
C637        C  0.76222635  0.20624567  0.53039981    -0.23200
C638        C  0.71742828  0.19118915  0.55352622    -0.00200
H639        H  0.82835488  0.25256643  0.55343388     0.13500
H640        H  0.77241948  0.19827957  0.49542717     0.13600
N641        N  0.99430089  0.56700601  0.09317863    -0.02700
C642        C  0.94414063  0.54858674  0.08900657    -0.00100
C643        C  0.91939243  0.54523969  0.13065018    -0.23000
C644        C  0.95467545  0.56293046  0.16191364    -0.23200
C645        C  0.00039174  0.57543545  0.13860589    -0.00200
H646        H  0.87954867  0.53208541  0.13738844     0.13500
H647        H  0.94712756  0.56798116  0.19783377     0.13600
O648        O  0.91474627  0.55870488  0.01266944    -0.80200
O649        O  0.78085493  0.91766696  0.37890316    -0.64800
O650        O  0.83189545  0.49950883  0.97500571    -1.11400
C651        C  0.90358606  0.85603181  0.03571207     1.06700
O652        O  0.76948161  0.84666829  0.91678253    -0.78000
O653        O  0.76235753  0.88556121  0.00024474    -0.65600
Ni654      Ni  0.86752656  0.56028048  0.96042013     1.34900
C655        C  0.77139266  0.91717290  0.03097225     0.85500
O656        O  0.76460086  0.51196401  0.40106618    -0.78600
O657        O  0.82412443  0.57274653  0.40773389    -0.88900
C658        C  0.76131165  0.87435134  0.38241214     0.85000
O659        O  0.91848722  0.52674797  0.42400541    -0.67100
O660        O  0.85824445  0.83852307  0.02489590    -0.86400
C661        C  0.90960001  0.00019096  0.38907316     0.85900
C662        C  0.78254708  0.55425046  0.39012257     1.07400
H663        H  0.87999956  0.90012751  0.93140857     0.39200
O664        O  0.85069593  0.90835304  0.95125123    -1.09000
O665        O  0.81806957  0.93108812  0.04102053    -0.65700
Ni666      Ni  0.87514581  0.94855352  0.00020700     1.26300
O667        O  0.86577953  0.97667316  0.38376485    -0.65900
O668        O  0.91889570  0.89816254  0.02285125    -0.78200
C669        C  0.91826636  0.53081818  0.04736563     0.85300
O670        O  0.89845163  0.98808707  0.04880491    -0.65400
Ni671      Ni  0.81514676  0.84803529  0.96985707     1.27400
Ni672      Ni  0.80742765  0.95970330  0.42549138     1.26100
H673        H  0.80237734  0.50724926  0.99472767     0.39800
N674        N  0.72731927  0.85699219  0.34633815    -0.02700
C675        C  0.68264114  0.82910647  0.34977514    -0.00100
C676        C  0.65370068  0.83124388  0.30996098    -0.23000
C677        C  0.68183699  0.86036517  0.28039980    -0.23200
C678        C  0.72663599  0.87542137  0.30352610    -0.00200
H679        H  0.61570709  0.81404748  0.30343473     0.13500
H680        H  0.67164353  0.86833016  0.24542683     0.13600
N681        N  0.94976724  0.81700690  0.10379113    -0.02700
C682        C  0.99992654  0.79858630  0.10796256    -0.00100
C683        C  0.02467364  0.79523914  0.06631849    -0.23000
C684        C  0.98939112  0.81293112  0.03505559    -0.23200
C685        C  0.94367587  0.82543687  0.05836390    -0.00200
H686        H  0.06451648  0.78208412  0.05957952     0.13500
H687        H  0.99693862  0.81798168  0.99913538     0.13600
O688        O  0.02932212  0.80870459  0.18429989    -0.80200
O689        O  0.16321256  0.66766909  0.31806644    -0.64800
O690        O  0.11217190  0.74951006  0.22196406    -1.11400
C691        C  0.04048139  0.60603116  0.16125762     1.06700
O692        O  0.17458587  0.59667098  0.28018676    -0.78000
O693        O  0.18170941  0.63556433  0.19672523    -0.65600
Ni694      Ni  0.07654022  0.81027997  0.23655043     1.34900
C695        C  0.17267470  0.66717587  0.16599794     0.85500
O696        O  0.17946647  0.76196654  0.29590308    -0.78600
O697        O  0.11994070  0.82274562  0.28923791    -0.88900
C698        C  0.18275612  0.62435411  0.31455722     0.85000
O699        O  0.02557906  0.77674390  0.27296297    -0.67100
O700        O  0.08582266  0.58852345  0.17207392    -0.86400
C701        C  0.03446691  0.75018919  0.30789624     0.85900
C702        C  0.16151869  0.80425126  0.30684836     1.07400
H703        H  0.06406710  0.65012738  0.26556086     0.39200
O704        O  0.09337095  0.65835364  0.24571827    -1.09000
O705        O  0.12599799  0.68108994  0.15594931    -0.65700
Ni706      Ni  0.06892143  0.69855371  0.19676245     1.26300
O707        O  0.07828775  0.72667337  0.31320493    -0.65900
O708        O  0.02517193  0.64816163  0.17411792    -0.78200
C709        C  0.02580122  0.78081783  0.14960358     0.85300
O710        O  0.04561542  0.73808692  0.14816436    -0.65400
Ni711      Ni  0.12892022  0.59803686  0.22711258     1.27400
Ni712      Ni  0.13663952  0.70970480  0.27147820     1.26100
H713        H  0.14168988  0.75725168  0.20224221     0.39800
N714        N  0.21674856  0.60699565  0.35063113    -0.02700
C715        C  0.26142468  0.57910799  0.34719484    -0.00100
C716        C  0.29036405  0.58124434  0.38700970    -0.23000
C717        C  0.26222932  0.61036671  0.41657045    -0.23200
C718        C  0.21743208  0.62542464  0.39344343    -0.00200
H719        H  0.32835593  0.56404625  0.39353677     0.13500
H720        H  0.27242219  0.61833076  0.45154382     0.13600
N721        N  0.99429970  0.74960612  0.34317854    -0.02700
C722        C  0.94414021  0.76802628  0.33900715    -0.00100
C723        C  0.91939283  0.77137261  0.38065117    -0.23000
C724        C  0.95467548  0.75368083  0.41191402    -0.23200
C725        C  0.00039100  0.74117588  0.38860572    -0.00200
H726        H  0.87954972  0.78452697  0.38739008     0.13500
H727        H  0.94712791  0.74862984  0.44783417     0.13600
O728        O  0.76948320  0.96994373  0.16678323    -0.80200
O729        O  0.89845147  0.82852610  0.29880583    -0.64800
O730        O  0.85069739  0.90826029  0.20125189    -1.11400
C731        C  0.78254802  0.76236352  0.14012163     1.06700
O732        O  0.91474455  0.75790863  0.26266987    -0.78000
O733        O  0.91848767  0.78986921  0.17400672    -0.65600
Ni734      Ni  0.81514870  0.96857732  0.21985757     1.34900
C735        C  0.90960014  0.81642419  0.13907353     0.85500
O736        O  0.91889620  0.91845122  0.27285249    -0.78600
O737        O  0.85824625  0.97809012  0.27489633    -0.88900
C738        C  0.91826556  0.78579514  0.29736633     0.85000
O739        O  0.76235889  0.93105035  0.25024479    -0.67100
O740        O  0.82412560  0.74386852  0.15773215    -0.86400
C741        C  0.77139299  0.89943864  0.28097209     0.85900
C742        C  0.90358726  0.96058187  0.28571271     1.07400
H743        H  0.80237678  0.80936257  0.24472761     0.39200
O744        O  0.83189525  0.81710399  0.22500584    -1.09000
O745        O  0.86577972  0.83994064  0.13376499    -0.65700
Ni746      Ni  0.80742827  0.85690966  0.17549178     1.26300
O747        O  0.81806949  0.88552397  0.29102078    -0.65900
O748        O  0.76460083  0.80464846  0.15106683    -0.78200
C749        C  0.76131269  0.94226068  0.13241273     0.85300
O750        O  0.78085580  0.89894557  0.12890354    -0.65400
Ni751      Ni  0.86752624  0.75633371  0.21041949     1.27400
Ni752      Ni  0.87514614  0.86805976  0.25020776     1.26100
H753        H  0.88000168  0.91648637  0.18140923     0.39800
N754        N  0.72732049  0.95961937  0.09633873    -0.02700
C755        C  0.68264463  0.98750731  0.09977495    -0.00100
C756        C  0.65370513  0.48537104  0.05996025    -0.23000
C757        C  0.68183943  0.95624834  0.03039953    -0.23200
C758        C  0.72663660  0.94119018  0.05352651    -0.00200
H759        H  0.61571320  0.50256907  0.05343339     0.13500
H760        H  0.67164626  0.94828410  0.99542625     0.13600
N761        N  0.94976808  0.49960686  0.35379160    -0.02700
C762        C  0.99992850  0.51802575  0.35796368    -0.00100
C763        C  0.02467694  0.52137206  0.31632013    -0.23000
C764        C  0.98939391  0.00368120  0.28505671    -0.23200
C765        C  0.94367732  0.99117711  0.30836439    -0.00200
H766        H  0.06452090  0.53452586  0.30958191     0.13500
H767        H  0.99694183  0.99863002  0.24913665     0.13600
O768        O  0.17458517  0.71994638  0.53018740    -0.80200
O769        O  0.04561742  0.57852589  0.39816491    -0.64800
O770        O  0.09337169  0.65826080  0.49571848    -1.11400
C771        C  0.16152224  0.51236427  0.55684743     1.06700
O772        O  0.02932283  0.50790833  0.43430091    -0.78000
O773        O  0.02558176  0.53986540  0.52296475    -0.65600
Ni774      Ni  0.12892026  0.71857879  0.47711260     1.34900
C775        C  0.03446884  0.56642238  0.05789695     0.85500
O776        O  0.02517214  0.66845043  0.42411810    -0.78600
O777        O  0.08582269  0.72809049  0.42207353    -0.88900
C778        C  0.02580270  0.53579473  0.39960451     0.85000
O779        O  0.18171015  0.68105328  0.44672516    -0.67100
O780        O  0.11994517  0.99386774  0.53923612    -0.86400
C781        C  0.17267558  0.64944143  0.41599766     0.85900
C782        C  0.04048125  0.71058133  0.41125737     1.07400
H783        H  0.14169169  0.55936482  0.45224246     0.39200
O784        O  0.11217338  0.56710507  0.47196430    -1.09000
O785        O  0.07828897  0.58994070  0.56320513    -0.65700
Ni786      Ni  0.13664059  0.60691105  0.52147856     1.26300
O787        O  0.12599885  0.63552573  0.40594926    -0.65900
O788        O  0.17946809  0.55465084  0.54590384    -0.78200
C789        C  0.18275546  0.69226348  0.56455784     0.85300
O790        O  0.16321274  0.64894767  0.56806679    -0.65400
Ni791      Ni  0.07654276  0.50633323  0.48655005     1.27400
Ni792      Ni  0.06892254  0.61805995  0.44676269     1.26100
H793        H  0.06406763  0.66648616  0.51556117     0.39800
N794        N  0.21674750  0.70962299  0.10063193    -0.02700
C795        C  0.26142552  0.73750889  0.59719487    -0.00100
C796        C  0.29036610  0.73537159  0.13700892    -0.23000
C797        C  0.26223016  0.70625010  0.16657013    -0.23200
C798        C  0.21743119  0.69119369  0.14344391    -0.00200
H799        H  0.32835981  0.75256784  0.14353489     0.13500
H800        H  0.27242393  0.69828490  0.20154299     0.13600
N801        N  0.44976918  0.81700637  0.09317990    -0.02700
C802        C  0.49992805  0.79858487  0.08900838    -0.00100
C803        C  0.52467614  0.79523740  0.13065253    -0.23000
C804        C  0.48939471  0.81292992  0.16191550    -0.23200
C805        C  0.44367890  0.82543629  0.13860730    -0.00200
H806        H  0.56451892  0.78208173  0.13739155     0.13500
H807        H  0.49694321  0.81798005  0.19783580     0.13600
O808        O  0.67458126  0.59666902  0.91678183    -0.80200
O809        O  0.54561390  0.73808430  0.04880544    -0.64800
O810        O  0.59336775  0.65835213  0.95125041    -1.11400
C811        C  0.66151623  0.80425003  0.39012311     1.06700
O812        O  0.52932242  0.80870317  0.01267112    -0.78000
O813        O  0.52557750  0.77674201  0.42400739    -0.65600
Ni814      Ni  0.62891542  0.59803408  0.96985533     1.34900
C815        C  0.53446525  0.75018864  0.38907326     0.85500
O816        O  0.52516825  0.64815970  0.02284953    -0.78600
O817        O  0.58581744  0.58852011  0.02489314    -0.88900
C818        C  0.52580132  0.78081599  0.04736702     0.85000
O819        O  0.68170542  0.63555956  0.00024480    -0.67100
O820        O  0.61993817  0.82274403  0.40773296    -0.86400
C821        C  0.67267143  0.66717112  0.03097215     0.85900
C822        C  0.54047707  0.60602901  0.03571008     1.07400
H823        H  0.64168834  0.75724871  0.99472941     0.39200
O824        O  0.61217025  0.74950784  0.97500686    -1.09000
O825        O  0.57828605  0.72667313  0.38376458    -0.65700
Ni826      Ni  0.63663740  0.70970351  0.42549247     1.26300
O827        O  0.62599507  0.68108559  0.04102039    -0.65900
O828        O  0.67946465  0.76196568  0.40106926    -0.78200
C829        C  0.68275289  0.62435335  0.38241256     0.85300
O830        O  0.66321033  0.66766875  0.37890414    -0.65400
Ni831      Ni  0.57653920  0.81027825  0.96042052     1.27400
Ni832      Ni  0.56891885  0.69855154  0.00020669     1.26100
H833        H  0.56406393  0.65012680  0.93140711     0.39800
N834        N  0.71674535  0.60699580  0.34633892    -0.02700
C835        C  0.76142108  0.57910754  0.34977512    -0.00100
C836        C  0.79036033  0.58124464  0.30996092    -0.23000
C837        C  0.76222621  0.61036861  0.28040065    -0.23200
C838        C  0.71742934  0.62542646  0.30352727    -0.00200
H839        H  0.82835190  0.56404615  0.30343405     0.13500
H840        H  0.77241916  0.61833362  0.24542774     0.13600
N841        N  0.49429801  0.56700534  0.10379035    -0.02700
C842        C  0.44413793  0.54858608  0.10796302    -0.00100
C843        C  0.41938810  0.54523884  0.06631957    -0.23000
C844        C  0.45466994  0.56292941  0.03505570    -0.23200
C845        C  0.50038734  0.57543446  0.05836289    -0.00200
H846        H  0.37954410  0.53208444  0.05958164     0.13500
H847        H  0.44712068  0.56797958  0.99913557     0.13600
O848        O  0.26948424  0.84666873  0.28018836    -0.80200
O849        O  0.39845296  0.98808547  0.14816608    -0.64800
O850        O  0.35069845  0.90835293  0.24572013    -1.11400
C851        C  0.28254994  0.55425089  0.30684723     1.06700
O852        O  0.41474561  0.55870467  0.18430042    -0.78000
O853        O  0.41848910  0.52674666  0.27296457    -0.65600
Ni854      Ni  0.31514986  0.84803446  0.22711448     1.34900
C855        C  0.40960213  0.00019114  0.30789751     0.85500
O856        O  0.41889845  0.89816152  0.17412114    -0.78600
O857        O  0.35824817  0.83852111  0.17207651    -0.88900
C858        C  0.41826565  0.53081739  0.14960451     0.85000
O859        O  0.26236040  0.88555933  0.19672495    -0.67100
O860        O  0.32412756  0.57274629  0.28923675    -0.86400
C861        C  0.27139536  0.91717064  0.16599740     0.85900
C862        C  0.40358912  0.85603061  0.16125992     1.07400
H863        H  0.30237874  0.50724810  0.20224162     0.39200
O864        O  0.33189690  0.49950819  0.22196419    -1.09000
O865        O  0.36578142  0.97667418  0.31320598    -0.65700
Ni866      Ni  0.30742965  0.95970359  0.27147853     1.26300
O867        O  0.31807217  0.93108556  0.15594979    -0.65900
O868        O  0.26460283  0.51196487  0.29590256    -0.78200
C869        C  0.26131412  0.87435274  0.31455816     0.85300
O870        O  0.28085738  0.91766839  0.31806673    -0.65400
Ni871      Ni  0.36752782  0.56028003  0.23655017     1.27400
Ni872      Ni  0.37514800  0.94855259  0.19676427     1.26100
H873        H  0.38000285  0.90012785  0.26556384     0.39800
N874        N  0.22732202  0.85699487  0.35063219    -0.02700
C875        C  0.18264455  0.82910811  0.34719588    -0.00100
C876        C  0.15370485  0.83124622  0.38700976    -0.23000
C877        C  0.18184077  0.86036955  0.41657011    -0.23200
C878        C  0.22663886  0.87542586  0.39344363    -0.00200
H879        H  0.11571200  0.81404890  0.39353634     0.13500
H880        H  0.17164798  0.86833537  0.45154287     0.13600
N881        N  0.49429783  0.74960669  0.35379028    -0.02700
C882        C  0.44413873  0.76802757  0.35796185    -0.00100
C883        C  0.41939028  0.77137424  0.31631782    -0.23000
C884        C  0.45467174  0.75368176  0.28505487    -0.23200
C885        C  0.50038793  0.74117629  0.30836296    -0.00200
H886        H  0.37954732  0.78452948  0.30957888     0.13500
H887        H  0.44712311  0.74863119  0.24913465     0.12800
O888        O  0.41474460  0.75791002  0.43429918    -0.80200
O889        O  0.28085800  0.89894586  0.56806576    -0.64800
O890        O  0.33189691  0.81710604  0.47196306    -1.11400
C891        C  0.40359136  0.96058404  0.41125939     1.06700
O892        O  0.26948765  0.96994568  0.53018809    -0.78000
O893        O  0.26236266  0.93105484  0.44672520    -0.65600
Ni894      Ni  0.36752745  0.75633540  0.48654950     1.34900
C895        C  0.27139616  0.89944322  0.41599778     0.85500
O896        O  0.26460246  0.80464932  0.54590071    -0.78600
O897        O  0.32412800  0.74387017  0.53923679    -0.88900
C898        C  0.26131589  0.94226140  0.56455740     0.85000
O899        O  0.41848924  0.78987110  0.52296287    -0.67100
O900        O  0.35825116  0.97809343  0.42207630    -0.86400
C901        C  0.40960183  0.81642476  0.05789686     0.85900
C902        C  0.28255037  0.76236480  0.55684678     1.07400
H903        H  0.38000418  0.91648667  0.51556232     0.39200
O904        O  0.35070038  0.90826168  0.49571922    -1.09000
O905        O  0.31807235  0.88552822  0.40594945    -0.65700
Ni906      Ni  0.37514866  0.86806181  0.44676296     1.26300
O907        O  0.36578136  0.83994085  0.56320535    -0.65900
O908        O  0.41889967  0.91845314  0.42411982    -0.78200
C909        C  0.41826562  0.78579686  0.39960306     0.85300
O910        O  0.39845306  0.82852854  0.39816431    -0.65400
Ni911      Ni  0.31515321  0.96858003  0.47711431     1.27400
Ni912      Ni  0.30743026  0.85691086  0.52147739     1.26100
H913        H  0.30237871  0.80936531  0.45224048     0.39800
N914        N  0.22732368  0.95961915  0.10063112    -0.02700
C915        C  0.18264819  0.98750769  0.59719497    -0.00100
C916        C  0.15370871  0.48537061  0.13700906    -0.23000
C917        C  0.18184254  0.95624643  0.16656927    -0.23200
C918        C  0.22663935  0.94118833  0.14344268    -0.00200
H919        H  0.11571708  0.50256901  0.14353574     0.13500
H920        H  0.17164938  0.94828130  0.20154212     0.13600
N921        N  0.44977084  0.49960767  0.34317935    -0.02700
C922        C  0.49993119  0.51802639  0.33900667    -0.00100
C923        C  0.52468134  0.52137279  0.38065005    -0.23000
C924        C  0.48939929  0.00368225  0.41191390    -0.23200
C925        C  0.44368157  0.99117813  0.38860673    -0.00200
H926        H  0.56452553  0.53452672  0.38738794     0.13500
H927        H  0.49694857  0.99863162  0.44783398     0.13600
O928        O  0.52932348  0.50790852  0.26266921    -0.80200
O929        O  0.66321019  0.64894630  0.12890321    -0.64800
O930        O  0.61217181  0.56710578  0.22500571    -1.11400
C931        C  0.54047819  0.71058245  0.28571038     1.06700
O932        O  0.67458259  0.71994599  0.16678158    -0.78000
O933        O  0.68170743  0.68105526  0.25024504    -0.65600
Ni934      Ni  0.57654140  0.50633366  0.21041960     1.34900
C935        C  0.67267295  0.64944373  0.28097254     0.85500
O936        O  0.67946595  0.55465000  0.15106741    -0.78600
O937        O  0.61994195  0.99386791  0.15773312    -0.88900
C938        C  0.68275288  0.69226213  0.13241171     0.85000
O939        O  0.52557980  0.53986637  0.17400507    -0.67100
O940        O  0.58581895  0.72809244  0.27489377    -0.86400
C941        C  0.53446657  0.56642222  0.13907229     0.85900
C942        C  0.66151929  0.51236385  0.14012271     1.07400
H943        H  0.56406537  0.66648566  0.18140681     0.39200
O944        O  0.59336926  0.65826095  0.20125001    -1.09000
O945        O  0.62599630  0.63552829  0.29102017    -0.65700
Ni946      Ni  0.56892035  0.61806091  0.25020584     1.26300
O947        O  0.57828691  0.58993980  0.13376404    -0.65900
O948        O  0.52516940  0.66845139  0.27284919    -0.78200
C949        C  0.52580337  0.53579553  0.29736529     0.85300
O950        O  0.54561602  0.57852761  0.29880398    -0.65400
Ni951      Ni  0.62891728  0.71857962  0.21985568     1.27400
Ni952      Ni  0.63663853  0.60691082  0.17549144     1.26100
H953        H  0.64168924  0.55936626  0.24472770     0.39800
N954        N  0.71674472  0.70962033  0.09633760    -0.02700
C955        C  0.76142211  0.73750714  0.09977400    -0.00100
C956        C  0.79036198  0.73536915  0.05996023    -0.23000
C957        C  0.76222632  0.70624576  0.03039979    -0.23200
C958        C  0.71742825  0.69118921  0.05352622    -0.00200
H959        H  0.82835496  0.75256633  0.05343394     0.13500
H960        H  0.77241942  0.69827977  0.99542712     0.13600
N961        N  0.99430084  0.56700604  0.59317866    -0.02700
C962        C  0.94414058  0.54858676  0.58900657    -0.00100
C963        C  0.91939236  0.54523971  0.63065018    -0.23000
C964        C  0.95467539  0.56293045  0.66191365    -0.23200
C965        C  0.00039170  0.57543545  0.63860592    -0.00200
H966        H  0.87954861  0.53208537  0.63738842     0.13500
H967        H  0.94712753  0.56798107  0.69783380     0.13600
O968        O  0.91474616  0.55870490  0.51266945    -0.80200
O969        O  0.78085485  0.91766695  0.87890320    -0.64800
O970        O  0.83189542  0.49950878  0.47500571    -1.11400
C971        C  0.90358606  0.85603182  0.53571208     1.06700
O972        O  0.76948169  0.84666831  0.41678251    -0.78000
O973        O  0.76235754  0.88556122  0.50024474    -0.65600
Ni974      Ni  0.86752647  0.56028047  0.46042013     1.34900
C975        C  0.77139265  0.91717292  0.53097226     0.85500
O976        O  0.76460081  0.51196402  0.90106619    -0.78600
O977        O  0.82412442  0.57274653  0.90773393    -0.88900
C978        C  0.76131163  0.87435131  0.88241215     0.85000
O979        O  0.91848727  0.52674794  0.92400541    -0.67100
O980        O  0.85824445  0.83852309  0.52489592    -0.86400
C981        C  0.90959997  0.00019097  0.88907316     0.85900
C982        C  0.78254704  0.55425047  0.89012261     1.07400
H983        H  0.87999966  0.90012752  0.43140860     0.39200
O984        O  0.85069598  0.90835304  0.45125124    -1.09000
O985        O  0.81806956  0.93108815  0.54102055    -0.65700
Ni986      Ni  0.87514583  0.94855352  0.50020701     1.26300
O987        O  0.86577946  0.97667318  0.88376487    -0.65900
O988        O  0.91889569  0.89816254  0.52285127    -0.78200
C989        C  0.91826634  0.53081817  0.54736562     0.85300
O990        O  0.89845179  0.98808706  0.54880488    -0.65400
Ni991      Ni  0.81514681  0.84803530  0.46985706     1.27400
Ni992      Ni  0.80742760  0.95970332  0.92549140     1.26100
H993        H  0.80237754  0.50724906  0.49472751     0.39800
N994        N  0.72731929  0.85699217  0.84633814    -0.02700
C995        C  0.68264122  0.82910639  0.84977514    -0.00100
C996        C  0.65370072  0.83124380  0.80996100    -0.23000
C997        C  0.68183694  0.86036517  0.78039982    -0.23200
C998        C  0.72663595  0.87542137  0.80352611    -0.00200
H999        H  0.61570715  0.81404737  0.80343478     0.13500
H1000       H  0.67164346  0.86833019  0.74542686     0.13600
N1001       N  0.94976719  0.81700680  0.60379110    -0.02700
C1002       C  0.99992647  0.79858615  0.60796252    -0.00100
C1003       C  0.02467362  0.79523909  0.56631843    -0.23000
C1004       C  0.98939110  0.81293113  0.53505557    -0.23200
C1005       C  0.94367586  0.82543687  0.55836389    -0.00200
H1006       H  0.06451648  0.78208411  0.55957941     0.13500
H1007       H  0.99693853  0.81798177  0.49913536     0.13600
O1008       O  0.02932215  0.80870455  0.68429986    -0.80200
O1009       O  0.16321276  0.66766915  0.81806643    -0.64800
O1010       O  0.11217185  0.74951003  0.72196408    -1.11400
C1011       C  0.04048137  0.60603115  0.66125765     1.06700
O1012       O  0.17458583  0.59667097  0.78018682    -0.78000
O1013       O  0.18170938  0.63556436  0.69672524    -0.65600
Ni1014     Ni  0.07654027  0.81027997  0.73655041     1.34900
C1015       C  0.17267471  0.66717590  0.66599794     0.85500
O1016       O  0.17946641  0.76196655  0.79590307    -0.78600
O1017       O  0.11994067  0.82274565  0.78923792    -0.88900
C1018       C  0.18275626  0.62435415  0.81455722     0.85000
O1019       O  0.02557912  0.77674395  0.77296299    -0.67100
O1020       O  0.08582269  0.58852350  0.67207388    -0.86400
C1021       C  0.03446696  0.75018921  0.80789625     0.85900
C1022       C  0.16151863  0.80425125  0.80684837     1.07400
H1023       H  0.06406702  0.65012739  0.76556088     0.39200
O1024       O  0.09337089  0.65835364  0.74571831    -1.09000
O1025       O  0.12599799  0.68108998  0.65594930    -0.65700
Ni1026     Ni  0.06892138  0.69855369  0.69676247     1.26300
O1027       O  0.07828775  0.72667336  0.81320495    -0.65900
O1028       O  0.02517189  0.64816161  0.67411795    -0.78200
C1029       C  0.02580117  0.78081774  0.64960357     0.85300
O1030       O  0.04561537  0.73808684  0.64816437    -0.65400
Ni1031     Ni  0.12892019  0.59803689  0.72711260     1.27400
Ni1032     Ni  0.13663950  0.70970481  0.77147821     1.26100
H1033       H  0.14168983  0.75725161  0.70224223     0.39800
N1034       N  0.21674873  0.60699568  0.85063111    -0.02700
C1035       C  0.26142482  0.57910799  0.84719481    -0.00100
C1036       C  0.29036425  0.58124435  0.88700964    -0.23000
C1037       C  0.26222954  0.61036672  0.91657042    -0.23200
C1038       C  0.21743224  0.62542464  0.89344343    -0.00200
H1039       H  0.32835613  0.56404626  0.89353669     0.13500
H1040       H  0.27242247  0.61833071  0.95154379     0.13600
N1041       N  0.99429974  0.74960608  0.84317855    -0.02700
C1042       C  0.94414028  0.76802631  0.83900718    -0.00100
C1043       C  0.91939290  0.77137265  0.88065120    -0.23000
C1044       C  0.95467554  0.75368076  0.91191403    -0.23200
C1045       C  0.00039104  0.74117573  0.88860571    -0.00200
H1046       H  0.87954982  0.78452709  0.88739012     0.13500
H1047       H  0.94712801  0.74862976  0.94783419     0.13600
O1048       O  0.76948310  0.96994374  0.66678325    -0.80200
O1049       O  0.89845145  0.82852610  0.79880585    -0.64800
O1050       O  0.85069731  0.90826030  0.70125191    -1.11400
C1051       C  0.78254799  0.76236354  0.64012166     1.06700
O1052       O  0.91474462  0.75790866  0.76266989    -0.78000
O1053       O  0.91848768  0.78986921  0.67400672    -0.65600
Ni1054     Ni  0.81514859  0.96857733  0.71985761     1.34900
C1055       C  0.90960009  0.81642411  0.63907350     0.85500
O1056       O  0.91889611  0.91845124  0.77285251    -0.78600
O1057       O  0.85824617  0.97809014  0.77489636    -0.88900
C1058       C  0.91826563  0.78579518  0.79736634     0.85000
O1059       O  0.76235880  0.93105033  0.75024480    -0.67100
O1060       O  0.82412559  0.74386854  0.65773219    -0.86400
C1061       C  0.77139292  0.89943858  0.78097207     0.85900
C1062       C  0.90358720  0.96058190  0.78571271     1.07400
H1063       H  0.80237675  0.80936248  0.74472762     0.39200
O1064       O  0.83189523  0.81710396  0.72500585    -1.09000
O1065       O  0.86577967  0.83994059  0.63376499    -0.65700
Ni1066     Ni  0.80742818  0.85690963  0.67549181     1.26300
O1067       O  0.81806942  0.88552393  0.79102079    -0.65900
O1068       O  0.76460077  0.80464847  0.65106685    -0.78200
C1069       C  0.76131260  0.94226069  0.63241275     0.85300
O1070       O  0.78085571  0.89894558  0.62890356    -0.65400
Ni1071     Ni  0.86752630  0.75633371  0.71041951     1.27400
Ni1072     Ni  0.87514605  0.86805976  0.75020780     1.26100
H1073       H  0.88000075  0.91648617  0.68140980     0.39800
N1074       N  0.72732042  0.95961936  0.59633873    -0.02700
C1075       C  0.68264456  0.98750727  0.59977495    -0.00100
C1076       C  0.65370507  0.48537103  0.55996027    -0.23000
C1077       C  0.68183938  0.95624834  0.53039953    -0.23200
C1078       C  0.72663655  0.94119019  0.55352651    -0.00200
H1079       H  0.61571314  0.50256908  0.55343342     0.13500
H1080       H  0.67164619  0.94828416  0.49542625     0.13600
N1081       N  0.94976808  0.49960688  0.85379160    -0.02700
C1082       C  0.99992851  0.51802575  0.85796366    -0.00100
C1083       C  0.02467696  0.52137208  0.81632014    -0.23000
C1084       C  0.98939394  0.00368117  0.78505674    -0.23200
C1085       C  0.94367729  0.99117712  0.80836438    -0.00200
H1086       H  0.06452091  0.53452590  0.80958196     0.13500
H1087       H  0.99694197  0.99863000  0.74913669     0.13600
O1088       O  0.17458529  0.71994635  0.03018739    -0.80200
O1089       O  0.04561743  0.57852593  0.89816483    -0.64800
O1090       O  0.09337173  0.65826082  0.99571848    -1.11400
C1091       C  0.16152221  0.51236428  0.05684740     1.06700
O1092       O  0.02932295  0.50790835  0.93430079    -0.78000
O1093       O  0.02558182  0.53986538  0.02296470    -0.65600
Ni1094     Ni  0.12892042  0.71857878  0.97711260     1.34900
C1095       C  0.03446877  0.56642241  0.55789699     0.85500
O1096       O  0.02517227  0.66845034  0.92411806    -0.78600
O1097       O  0.08582276  0.72809050  0.92207359    -0.88900
C1098       C  0.02580276  0.53579475  0.89960442     0.85000
O1099       O  0.18171030  0.68105327  0.94672517    -0.67100
O1100       O  0.11994520  0.99386766  0.03923598    -0.86400
C1101       C  0.17267570  0.64944141  0.91599767     0.85900
C1102       C  0.04048136  0.71058125  0.91125736     1.07400
H1103       H  0.14169164  0.55936486  0.95224242     0.39200
O1104       O  0.11217336  0.56710509  0.97196427    -1.09000
O1105       O  0.07828901  0.58994069  0.06320511    -0.65700
Ni1106     Ni  0.13664061  0.60691105  0.02147852     1.26300
O1107       O  0.12599894  0.63552575  0.90594928    -0.65900
O1108       O  0.17946802  0.55465086  0.04590382    -0.78200
C1109       C  0.18275547  0.69226348  0.06455785     0.85300
O1110       O  0.16321281  0.64894764  0.06806677    -0.65400
Ni1111     Ni  0.07654280  0.50633322  0.98654994     1.27400
Ni1112     Ni  0.06892258  0.61805994  0.94676266     1.26100
H1113       H  0.06406803  0.66648614  0.01556095     0.39800
N1114       N  0.21674763  0.70962291  0.60063188    -0.02700
C1115       C  0.26142543  0.73750890  0.09719489    -0.00100
C1116       C  0.29036619  0.73537165  0.63700891    -0.23000
C1117       C  0.26223028  0.70625010  0.66657010    -0.23200
C1118       C  0.21743129  0.69119366  0.64344388    -0.00200
H1119       H  0.32835984  0.75256801  0.64353493     0.13500
H1120       H  0.27242408  0.69828497  0.70154297     0.13600
N1121       N  0.44976912  0.81700637  0.59317988    -0.02700
C1122       C  0.49992797  0.79858488  0.58900836    -0.00100
C1123       C  0.52467607  0.79523741  0.63065251    -0.23000
C1124       C  0.48939465  0.81292995  0.66191548    -0.23200
C1125       C  0.44367882  0.82543630  0.63860729    -0.00200
H1126       H  0.56451884  0.78208172  0.63739150     0.13500
H1127       H  0.49694315  0.81798010  0.69783577     0.13600
O1128       O  0.67458133  0.59666901  0.41678183    -0.80200
O1129       O  0.54561380  0.73808430  0.54880543    -0.64800
O1130       O  0.59336780  0.65835211  0.45125041    -1.11400
C1131       C  0.66151636  0.80425000  0.89012314     1.06700
O1132       O  0.52932239  0.80870320  0.51267113    -0.78000
O1133       O  0.52557759  0.77674199  0.92400737    -0.65600
Ni1134     Ni  0.62891555  0.59803408  0.46985536     1.34900
C1135       C  0.53446533  0.75018858  0.88907327     0.85500
O1136       O  0.52516834  0.64815963  0.52284958    -0.78600
O1137       O  0.58581760  0.58852010  0.52489319    -0.88900
C1138       C  0.52580125  0.78081600  0.54736701     0.85000
O1139       O  0.68170555  0.63555953  0.50024479    -0.67100
O1140       O  0.61993832  0.82274403  0.90773301    -0.86400
C1141       C  0.67267150  0.66717114  0.53097210     0.85900
C1142       C  0.54047716  0.60602893  0.53571007     1.07400
H1143       H  0.64168753  0.75724872  0.49472902     0.39200
O1144       O  0.61217015  0.74950790  0.47500683    -1.09000
O1145       O  0.57828617  0.72667317  0.88376456    -0.65700
Ni1146     Ni  0.63663741  0.70970347  0.92549248     1.26300
O1147       O  0.62599513  0.68108567  0.54102028    -0.65900
O1148       O  0.67946478  0.76196564  0.90106932    -0.78200
C1149       C  0.68275285  0.62435338  0.88241257     0.85300
O1150       O  0.66321025  0.66766875  0.87890413    -0.65400
Ni1151     Ni  0.57653910  0.81027827  0.46042050     1.27400
Ni1152     Ni  0.56891882  0.69855153  0.50020668     1.26100
H1153       H  0.56406486  0.65012697  0.43140764     0.39800
N1154       N  0.71674539  0.60699586  0.84633894    -0.02700
C1155       C  0.76142107  0.57910755  0.84977515    -0.00100
C1156       C  0.79036035  0.58124462  0.80996094    -0.23000
C1157       C  0.76222630  0.61036864  0.78040066    -0.23200
C1158       C  0.71742939  0.62542648  0.80352727    -0.00200
H1159       H  0.82835187  0.56404604  0.80343410     0.13500
H1160       H  0.77241929  0.61833360  0.74542775     0.13600
N1161       N  0.49429802  0.56700531  0.60379033    -0.02700
C1162       C  0.44413791  0.54858614  0.60796304    -0.00100
C1163       C  0.41938806  0.54523888  0.56631960    -0.23000
C1164       C  0.45466991  0.56292938  0.53505571    -0.23200
C1165       C  0.50038738  0.57543435  0.55836287    -0.00200
H1166       H  0.37954405  0.53208446  0.55958168     0.13500
H1167       H  0.44712059  0.56797953  0.49913559     0.13600
O1168       O  0.26948435  0.84666868  0.78018841    -0.80200
O1169       O  0.39845293  0.98808539  0.64816609    -0.64800
O1170       O  0.35069836  0.90835295  0.74572014    -1.11400
C1171       C  0.28254999  0.55425086  0.80684718     1.06700
O1172       O  0.41474561  0.55870472  0.68430040    -0.78000
O1173       O  0.41848925  0.52674659  0.77296455    -0.65600
Ni1174     Ni  0.31514985  0.84803444  0.72711449     1.34900
C1175       C  0.40960211  0.00019113  0.80789755     0.85500
O1176       O  0.41889836  0.89816151  0.67412117    -0.78600
O1177       O  0.35824808  0.83852111  0.67207650    -0.88900
C1178       C  0.41826566  0.53081742  0.64960452     0.85000
O1179       O  0.26236031  0.88555917  0.69672489    -0.67100
O1180       O  0.32412777  0.57274609  0.78923681    -0.86400
C1181       C  0.27139528  0.91717058  0.66599741     0.85900
C1182       C  0.40358902  0.85603062  0.66125991     1.07400
H1183       H  0.30237875  0.50724821  0.70224162     0.39200
O1184       O  0.33189691  0.49950823  0.72196419    -1.09000
O1185       O  0.36578139  0.97667419  0.81320601    -0.65700
Ni1186     Ni  0.30742960  0.95970362  0.77147854     1.26300
O1187       O  0.31807209  0.93108554  0.65594985    -0.65900
O1188       O  0.26460274  0.51196490  0.79590249    -0.78200
C1189       C  0.26131412  0.87435271  0.81455817     0.85300
O1190       O  0.28085724  0.91766841  0.81806673    -0.65400
Ni1191     Ni  0.36752796  0.56027999  0.73655021     1.27400
Ni1192     Ni  0.37514793  0.94855258  0.69676429     1.26100
H1193       H  0.38000276  0.90012787  0.76556385     0.39800
N1194       N  0.22732205  0.85699476  0.85063219    -0.02700
C1195       C  0.18264451  0.82910808  0.84719587    -0.00100
C1196       C  0.15370481  0.83124626  0.88700977    -0.23000
C1197       C  0.18184078  0.86036957  0.91657009    -0.23200
C1198       C  0.22663885  0.87542584  0.89344360    -0.00200
H1199       H  0.11571192  0.81404900  0.89353637     0.13500
H1200       H  0.17164807  0.86833547  0.95154285     0.13600
N1201       N  0.49429788  0.74960652  0.85379032    -0.02700
C1202       C  0.44413881  0.76802757  0.85796183    -0.00100
C1203       C  0.41939045  0.77137430  0.81631775    -0.23000
C1204       C  0.45467195  0.75368180  0.78505485    -0.23200
C1205       C  0.50038808  0.74117624  0.80836299    -0.00200
H1206       H  0.37954751  0.78452954  0.80957874     0.13500
H1207       H  0.44712339  0.74863126  0.74913461     0.12800
O1208       O  0.41474453  0.75791002  0.93429915    -0.80200
O1209       O  0.28085812  0.89894588  0.06806576    -0.64800
O1210       O  0.33189687  0.81710599  0.97196306    -1.11400
C1211       C  0.40359136  0.96058406  0.91125941     1.06700
O1212       O  0.26948762  0.96994564  0.03018803    -0.78000
O1213       O  0.26236266  0.93105487  0.94672520    -0.65600
Ni1214     Ni  0.36752741  0.75633538  0.98654950     1.34900
C1215       C  0.27139614  0.89944324  0.91599778     0.85500
O1216       O  0.26460247  0.80464932  0.04590070    -0.78600
O1217       O  0.32412801  0.74387013  0.03923684    -0.88900
C1218       C  0.26131592  0.94226140  0.06455737     0.85000
O1219       O  0.41848926  0.78987113  0.02296285    -0.67100
O1220       O  0.35825117  0.97809346  0.92207630    -0.86400
C1221       C  0.40960180  0.81642478  0.55789685     0.85900
C1222       C  0.28255035  0.76236477  0.05684679     1.07400
H1223       H  0.38000491  0.91648671  0.01556263     0.39200
O1224       O  0.35070047  0.90826162  0.99571923    -1.09000
O1225       O  0.31807231  0.88552823  0.90594946    -0.65700
Ni1226     Ni  0.37514859  0.86806176  0.94676293     1.26300
O1227       O  0.36578135  0.83994076  0.06320538    -0.65900
O1228       O  0.41889962  0.91845314  0.92411982    -0.78200
C1229       C  0.41826561  0.78579687  0.89960304     0.85300
O1230       O  0.39845297  0.82852853  0.89816427    -0.65400
Ni1231     Ni  0.31515328  0.96858001  0.97711434     1.27400
Ni1232     Ni  0.30743030  0.85691084  0.02147737     1.26100
H1233       H  0.30237755  0.80936491  0.95223980     0.39800
N1234       N  0.22732366  0.95961917  0.60063115    -0.02700
C1235       C  0.18264821  0.98750768  0.09719494    -0.00100
C1236       C  0.15370869  0.48537055  0.63700904    -0.23000
C1237       C  0.18184251  0.95624644  0.66656929    -0.23200
C1238       C  0.22663932  0.94118836  0.64344271    -0.00200
H1239       H  0.11571709  0.50256903  0.64353572     0.13500
H1240       H  0.17164935  0.94828127  0.70154213     0.13600
N1241       N  0.44977087  0.49960770  0.84317938    -0.02700
C1242       C  0.49993123  0.51802639  0.83900669    -0.00100
C1243       C  0.52468138  0.52137268  0.88065008    -0.23000
C1244       C  0.48939936  0.00368224  0.91191391    -0.23200
C1245       C  0.44368159  0.99117813  0.88860676    -0.00200
H1246       H  0.56452554  0.53452666  0.88738804     0.13500
H1247       H  0.49694872  0.99863162  0.94783397     0.13600
O1248       O  0.52932341  0.50790858  0.76266920    -0.80200
O1249       O  0.66321028  0.64894629  0.62890322    -0.64800
O1250       O  0.61217195  0.56710579  0.72500571    -1.11400
C1251       C  0.54047835  0.71058243  0.78571039     1.06700
O1252       O  0.67458261  0.71994603  0.66678155    -0.78000
O1253       O  0.68170749  0.68105522  0.75024504    -0.65600
Ni1254     Ni  0.57654146  0.50633369  0.71041963     1.34900
C1255       C  0.67267299  0.64944373  0.78097256     0.85500
O1256       O  0.67946601  0.55465004  0.65106729    -0.78600
O1257       O  0.61994195  0.99386796  0.65773314    -0.88900
C1258       C  0.68275294  0.69226214  0.63241171     0.85000
O1259       O  0.52557988  0.53986640  0.67400506    -0.67100
O1260       O  0.58581912  0.72809242  0.77489381    -0.86400
C1261       C  0.53446661  0.56642222  0.63907227     0.85900
C1262       C  0.66151934  0.51236387  0.64012269     1.07400
H1263       H  0.56406535  0.66648571  0.68140690     0.39200
O1264       O  0.59336934  0.65826097  0.70125003    -1.09000
O1265       O  0.62599633  0.63552835  0.79102023    -0.65700
Ni1266     Ni  0.56892055  0.61806086  0.75020589     1.26300
O1267       O  0.57828693  0.58993984  0.63376402    -0.65900
O1268       O  0.52516953  0.66845138  0.77284916    -0.78200
C1269       C  0.52580343  0.53579555  0.79736531     0.85300
O1270       O  0.54561626  0.57852757  0.79880403    -0.65400
Ni1271     Ni  0.62891739  0.71857964  0.71985570     1.27400
Ni1272     Ni  0.63663865  0.60691081  0.67549144     1.26100
H1273       H  0.64169096  0.55936589  0.74472866     0.39800
N1274       N  0.71674477  0.70962031  0.59633761    -0.02700
C1275       C  0.76142211  0.73750717  0.59977401    -0.00100
C1276       C  0.79036197  0.73536921  0.55996022    -0.23000
C1277       C  0.76222633  0.70624579  0.53039979    -0.23200
C1278       C  0.71742831  0.69118919  0.55352622    -0.00200
H1279       H  0.82835493  0.75256642  0.55343393     0.13500
H1280       H  0.77241941  0.69827981  0.49542711     0.13600
loop_ 
_geom_bond_atom_site_label_1 
_geom_bond_atom_site_label_2 
_geom_bond_distance 
_geom_bond_site_symmetry_2 
_ccdc_geom_bond_type 
N1            C5   1.365   1_655  A
N1            C2   1.363       .  A
N1          C135   1.450   1_655  S
C2            C3   1.378       .  A
C2           C29   1.469       .  S
C3            C4   1.366       .  A
C3            H6   1.083       .  S
C4            C5   1.382   1_655  A
C4            H7   1.083       .  S
C5           C51   1.465       .  S
O8          Ni14   1.945   1_554  S
O8           C29   1.272       .  A
O9          Ni32   1.902       .  S
O9           C18   1.273       .  A
O10         Ni14   1.919   1_565  S
O10        Ni992   1.913       .  S
O10        Ni666   1.905   1_556  S
O10          H33   0.966   1_565  S
C11          C45   1.465       .  S
C11          O28   1.259       .  A
C11          O20   1.276       .  A
O12         Ni31   1.940       .  S
O12         C338   1.275       .  A
O13         Ni31   1.896   1_554  S
O13          C15   1.264       .  A
Ni14        O337   1.927       .  S
Ni14        O339   1.902       .  S
C15         C118   1.460       .  S
C15          O25   1.269       .  A
O16        Ni672   1.916   1_545  S
O16          C22   1.270       .  A
O17        Ni334   1.927       .  S
O17          C22   1.271       .  A
C18          N34   1.442       .  S
C18         O332   1.275       .  A
O19        Ni334   1.902       .  S
O19         C661   1.273       .  A
O20         Ni31   1.967   1_554  S
C21         N761   1.450       .  S
C21          O27   1.283       .  A
C21         O659   1.273       .  A
C22         C195   1.464       .  S
H23          O24   0.967       .  S
O24         Ni26   1.906   1_556  S
O24         Ni31   1.938       .  S
O24        Ni352   1.920       .  S
O25         Ni26   1.932       .  S
Ni26         O30   1.879       .  S
Ni26         O28   1.873       .  S
Ni26        O650   1.905   1_554  S
O27         Ni32   1.969       .  S
C29         O670   1.258   1_545  A
O30         C669   1.258       .  A
Ni32        O656   1.916       .  S
Ni32        O970   1.913       .  S
Ni32        O344   1.920       .  S
N34          C38   1.355       .  A
N34          C35   1.358       .  A
C35          C36   1.381       .  A
C35         C171   1.464       .  S
C36          C37   1.370       .  A
C36          H39   1.081       .  S
C37          C38   1.379       .  A
C37          H40   1.083       .  S
C38         C101   1.460       .  S
N41          C45   1.365       .  A
N41          C42   1.363       .  A
N41          C95   1.450       .  S
C42          C43   1.378   1_655  A
C42          C69   1.469   1_655  S
C43          C44   1.366   1_455  A
C43          H46   1.083       .  S
C44          C45   1.382       .  A
C44          H47   1.083   1_554  S
O48         Ni54   1.945       .  S
O48          C69   1.272       .  A
O49         Ni72   1.902       .  S
O49          C58   1.273       .  A
O50         Ni54   1.919       .  S
O50         Ni72   1.913       .  S
O50         Ni66   1.905       .  S
O50          H73   0.966       .  S
C51          O68   1.259       .  A
C51          O60   1.276       .  A
O52         Ni71   1.940       .  S
O52          C58   1.275       .  A
O53         Ni71   1.896       .  S
O53          C55   1.264       .  A
Ni54         O57   1.927       .  S
Ni54         O59   1.902       .  S
C55         C158   1.460       .  S
C55          O65   1.269       .  A
O56         Ni72   1.916       .  S
O56          C62   1.270       .  A
O57          C62   1.271       .  A
C58          N74   1.442       .  S
O59          C61   1.273       .  A
O60         Ni71   1.967       .  S
C61          N81   1.450   1_455  S
C61          O67   1.283       .  A
C62         C235   1.464       .  S
H63          O64   0.967       .  S
O64         Ni72   1.920       .  S
O64         Ni66   1.906       .  S
O64         Ni71   1.938       .  S
O65         Ni66   1.932       .  S
Ni66         O70   1.879       .  S
Ni66         O68   1.873       .  S
O67         Ni72   1.969       .  S
C69          O70   1.258       .  A
N74          C78   1.355       .  A
N74          C75   1.358       .  A
C75          C76   1.381       .  A
C75         C211   1.464       .  S
C76          C77   1.370       .  A
C76          H79   1.081       .  S
C77          C78   1.379       .  A
C77          H80   1.083       .  S
C78         C141   1.460       .  S
N81          C85   1.365   1_655  A
N81          C82   1.363       .  A
C82          C83   1.378       .  A
C82          C98   1.469       .  S
C83          C84   1.366       .  A
C83          H86   1.083       .  S
C84          C85   1.382   1_655  A
C84          H87   1.083       .  S
C85         C142   1.465       .  S
O88         Ni94   1.940       .  S
O88         C109   1.275       .  A
O89        Ni112   1.879       .  S
O89          C98   1.258       .  A
O90         Ni94   1.938       .  S
O90        Ni112   1.906       .  S
O90        Ni106   1.920       .  S
O90         H113   0.967       .  S
C91         C315   1.464       .  S
C91         O108   1.270       .  A
C91         O100   1.271       .  A
O92        Ni111   1.945       .  S
O92          C98   1.272       .  A
O93        Ni111   1.902       .  S
O93          C95   1.273       .  A
Ni94         O97   1.967       .  S
Ni94         O99   1.896       .  S
C95         O105   1.283       .  A
O96        Ni112   1.873       .  S
O96         C102   1.259       .  A
O97         C102   1.276       .  A
O99         C101   1.264       .  A
O100       Ni111   1.927       .  S
C101        O107   1.269       .  A
C102        C125   1.465       .  S
H103        O104   0.966       .  S
O104       Ni112   1.905       .  S
O104       Ni106   1.913       .  S
O104       Ni111   1.919       .  S
O105       Ni106   1.969       .  S
Ni106       O110   1.902       .  S
Ni106       O108   1.916       .  S
O107       Ni112   1.932       .  S
C109        N114   1.442       .  S
C109        O110   1.273       .  A
N114        C118   1.355       .  A
N114        C115   1.358       .  A
C115        C756   1.381       .  A
C115        C942   1.464       .  S
C116        C755   1.381       .  A
C116        C757   1.370       .  A
C116        H119   1.081   1_565  S
C117        C118   1.379       .  A
C117        C756   1.370       .  A
C117        H120   1.083   1_554  S
N121        C122   1.363   1_565  A
N121        C765   1.365       .  A
N121        C661   1.450   1_565  S
C122        C123   1.378   1_655  A
C122        C138   1.469   1_655  S
C123        C764   1.366   1_455  A
C123        H126   1.083       .  S
C124        C125   1.382       .  A
C124        C763   1.366   1_655  A
C124        H127   1.083       .  S
C125        N761   1.365       .  A
O128       Ni134   1.940       .  S
O128        C149   1.275       .  A
O129       Ni152   1.879       .  S
O129        C138   1.258       .  A
O130       Ni134   1.938       .  S
O130       Ni152   1.906       .  S
O130       Ni146   1.920       .  S
O130        H153   0.967       .  S
C131        C915   1.464   1_545  S
C131        O148   1.270       .  A
C131        O780   1.271   1_545  A
O132       Ni151   1.945       .  S
O132        C138   1.272       .  A
O133       Ni151   1.902       .  S
O133        C455   1.273       .  A
Ni134       O137   1.967       .  S
Ni134       O139   1.896       .  S
C135        O453   1.273       .  A
C135        O465   1.283       .  A
O136       Ni152   1.873       .  S
O136        C142   1.259       .  A
O137        C142   1.276       .  A
O139        C141   1.264       .  A
O140       Ni791   1.927       .  S
O140        C771   1.271       .  A
C141        O147   1.269       .  A
H143        O144   0.966       .  S
O144       Ni152   1.905       .  S
O144       Ni146   1.913       .  S
O144       Ni151   1.919       .  S
O145       Ni146   1.969       .  S
O145        C455   1.283       .  A
Ni146       O150   1.902       .  S
Ni146       O148   1.916       .  S
O147       Ni152   1.932       .  S
C149        N474   1.442       .  S
C149        O150   1.273       .  A
Ni151       O780   1.927   1_545  S
N154        C158   1.355       .  A
N154        C475   1.358       .  A
N154        C469   1.442       .  S
C155        N474   1.358       .  A
C155        C476   1.381       .  A
C155        C262   1.464       .  S
C156        C157   1.370       .  A
C156        C475   1.381       .  A
C156        H159   1.081       .  S
C157        C158   1.379       .  A
C157        H160   1.083       .  S
N161        C165   1.365       .  A
N161        C162   1.363       .  A
N161        C261   1.450       .  S
C162        C163   1.378       .  A
C162        C178   1.469       .  S
C163        C164   1.366       .  A
C163        H166   1.083       .  S
C164        C165   1.382       .  A
C164        H167   1.083       .  S
C165        C222   1.465       .  S
O168       Ni174   1.940       .  S
O168        C509   1.275       .  A
O169       Ni192   1.879       .  S
O169        C178   1.258       .  A
O170       Ni174   1.938       .  S
O170       Ni192   1.906   1_556  S
O170       Ni506   1.920       .  S
O170        H193   0.967       .  S
C171        O188   1.270       .  A
C171        O180   1.271       .  A
O172       Ni191   1.945   1_554  S
O172        C178   1.272       .  A
O173       Ni511   1.902       .  S
O173        C175   1.273       .  A
Ni174       O177   1.967   1_556  S
Ni174       O179   1.896   1_556  S
C175        N241   1.450       .  S
C175        O185   1.283       .  A
O176       Ni192   1.873       .  S
O176        C182   1.259       .  A
O177        C182   1.276       .  A
O179        C181   1.264       .  A
O180       Ni511   1.927       .  S
C181        C318   1.460       .  S
C181        O187   1.269       .  A
C182        C205   1.465       .  S
H183        O184   0.966       .  S
O184       Ni192   1.905   1_556  S
O184       Ni191   1.919       .  S
O184       Ni506   1.913       .  S
O185       Ni186   1.969       .  S
Ni186       O190   1.902       .  S
Ni186       O188   1.916       .  S
Ni186       O490   1.920       .  S
Ni186       O504   1.913       .  S
O187       Ni192   1.932       .  S
C189        N194   1.442       .  S
C189        O190   1.273       .  A
C189        O488   1.275       .  A
Ni191       O493   1.902       .  S
Ni191       O500   1.927       .  S
N194        C198   1.355       .  A
N194        C195   1.358       .  A
C195        C196   1.381       .  A
C196        C197   1.370       .  A
C196        H199   1.081       .  S
C197        C198   1.379       .  A
C197        H200   1.083       .  S
C198        C295   1.460       .  S
N201        C205   1.365       .  A
N201        C202   1.363       .  A
N201        C301   1.450       .  S
C202        C203   1.378       .  A
C202        C218   1.469       .  S
C203        C204   1.366       .  A
C203        H206   1.083       .  S
C204        C205   1.382       .  A
C204        H207   1.083   1_554  S
O208       Ni214   1.940       .  S
O208        C229   1.275       .  A
O209       Ni232   1.879       .  S
O209        C858   1.258       .  A
O210       Ni214   1.938       .  S
O210       Ni232   1.906       .  S
O210       Ni226   1.920       .  S
O210        H233   0.967       .  S
C211        O228   1.270       .  A
C211        O220   1.271       .  A
O212       Ni231   1.945       .  S
O212        C218   1.272       .  A
O213       Ni231   1.902       .  S
O213        C855   1.273       .  A
Ni214       O217   1.967       .  S
Ni214       O219   1.896       .  S
C215        N921   1.450       .  S
C215        O225   1.283       .  A
C215        O853   1.273       .  A
O216       Ni232   1.874       .  S
O216        C222   1.259       .  A
O217        C222   1.276       .  A
C218        O849   1.258   1_545  A
O219        C221   1.264       .  A
O220       Ni231   1.927       .  S
C221        C278   1.460       .  S
C221        O227   1.269       .  A
H223        O224   0.966   1_545  S
O224       Ni231   1.919   1_565  S
O224       Ni872   1.905       .  S
O224       Ni866   1.913       .  S
O225       Ni226   1.969       .  S
Ni226       O230   1.902       .  S
Ni226       O868   1.916       .  S
Ni226       O864   1.913       .  S
O227       Ni232   1.932       .  S
O228       Ni866   1.916   1_545  S
C229        N234   1.442       .  S
C229        O230   1.273       .  A
Ni232       O864   1.905       .  S
N234        C238   1.355       .  A
N234        C235   1.358       .  A
C235        C236   1.381       .  A
C236        C237   1.370       .  A
C236        H239   1.081       .  S
C237        C238   1.379       .  A
C237        H240   1.083       .  S
C238        C255   1.460       .  S
N241        C245   1.365       .  A
N241        C242   1.363       .  A
C242        C243   1.378       .  A
C242        C269   1.469       .  S
C243        C244   1.366       .  A
C243        H246   1.083       .  S
C244        C245   1.382       .  A
C244        H247   1.083       .  S
C245        C291   1.465       .  S
O248       Ni254   1.945       .  S
O248        C269   1.272       .  A
O249       Ni272   1.902       .  S
O249        C258   1.273       .  A
O250       Ni254   1.919       .  S
O250       Ni272   1.913       .  S
O250       Ni266   1.905       .  S
O250        H273   0.966       .  S
C251        C285   1.465       .  S
C251        O268   1.259       .  A
C251        O260   1.276       .  A
O252       Ni271   1.940       .  S
O252        C258   1.275       .  A
O253       Ni271   1.896       .  S
O253        C255   1.264       .  A
Ni254       O257   1.927       .  S
Ni254       O259   1.902       .  S
C255        O265   1.269       .  A
O256       Ni272   1.916       .  S
O256        C262   1.270       .  A
O257        C262   1.271       .  A
C258        N594   1.442       .  S
O259        C581   1.273       .  A
O260       Ni271   1.967       .  S
C261        O579   1.273       .  A
C261        O587   1.283       .  A
H263        O264   0.967       .  S
O264       Ni272   1.920       .  S
O264       Ni266   1.906       .  S
O264       Ni271   1.938       .  S
O265       Ni266   1.932       .  S
Ni266       O270   1.879       .  S
Ni266       O268   1.873       .  S
O267       Ni272   1.969       .  S
O267        C581   1.283       .  A
C269        O270   1.258       .  A
N274        C278   1.355       .  A
N274        C595   1.358       .  A
N274        C578   1.442       .  S
C275        N594   1.358       .  A
C275       C1236   1.381       .  A
C275        C771   1.464       .  S
C276       C1235   1.381       .  A
C276        C917   1.370       .  A
C276        H279   1.081   1_565  S
C277        C278   1.379       .  A
C277        C916   1.370       .  A
C277        H280   1.083       .  S
N281        C282   1.363   1_565  A
N281        C925   1.365       .  A
N281        C855   1.450   1_565  S
C282        C283   1.378       .  A
C282        C309   1.469       .  S
C283        C924   1.366       .  A
C283        H286   1.083       .  S
C284        C285   1.382       .  A
C284        C923   1.366       .  A
C284        H287   1.083       .  S
C285        N921   1.365       .  A
O288       Ni294   1.945       .  S
O288        C309   1.272       .  A
O289       Ni312   1.902       .  S
O289        C298   1.273       .  A
O290       Ni294   1.919       .  S
O290       Ni312   1.913       .  S
O290       Ni306   1.905       .  S
O290        H313   0.966       .  S
C291        O308   1.259       .  A
C291        O300   1.276       .  A
O292       Ni311   1.940       .  S
O292        C298   1.275       .  A
O293       Ni311   1.896       .  S
O293        C295   1.264       .  A
Ni294       O299   1.902       .  S
Ni294       O937   1.927   1_545  S
C295        O305   1.269       .  A
O296       Ni312   1.916       .  S
O296        C302   1.270       .  A
O297       Ni934   1.927       .  S
O297        C942   1.271       .  A
C298        N314   1.442       .  S
O299        C301   1.273       .  A
O300       Ni311   1.967       .  S
C301        O307   1.283       .  A
C302        C755   1.464   1_545  S
C302        O937   1.271   1_545  A
H303        O304   0.967       .  S
O304       Ni312   1.920       .  S
O304       Ni306   1.906       .  S
O304       Ni311   1.938       .  S
O305       Ni306   1.932       .  S
Ni306       O310   1.879       .  S
Ni306       O308   1.874       .  S
O307       Ni312   1.969       .  S
C309        O310   1.258       .  A
N314        C318   1.355       .  A
N314        C315   1.358       .  A
C315        C316   1.381       .  A
C316        C317   1.370       .  A
C316        H319   1.081       .  S
C317        C318   1.379       .  A
C317        H320   1.083   1_554  S
N321        C325   1.365   1_655  A
N321        C322   1.363       .  A
N321        C455   1.450   1_655  S
C322        C323   1.378       .  A
C322        C349   1.469       .  S
C323        C324   1.366       .  A
C323        H326   1.083       .  S
C324        C325   1.382   1_655  A
C324        H327   1.083       .  S
C325        C371   1.465       .  S
O328       Ni334   1.945       .  S
O328        C349   1.272       .  A
O329       Ni352   1.902       .  S
O329        C338   1.273       .  A
O330       Ni334   1.919   1_565  S
O330       Ni672   1.913       .  S
O330       Ni986   1.905       .  S
O330        H353   0.966   1_565  S
C331        C365   1.465       .  S
C331        O348   1.259       .  A
C331        O340   1.276       .  A
O332       Ni351   1.940       .  S
O333       Ni351   1.896       .  S
O333        C335   1.264       .  A
C335        C438   1.460       .  S
C335        O345   1.269       .  A
O336       Ni992   1.916   1_545  S
O336        C342   1.270       .  A
O337        C342   1.271       .  A
C338        N354   1.442       .  S
O339        C981   1.273       .  A
O340       Ni351   1.967       .  S
C341       N1081   1.450       .  S
C341        O979   1.273       .  A
C341        O347   1.283       .  A
C342        C515   1.464       .  S
H343        O344   0.967       .  S
O344       Ni346   1.906       .  S
O344       Ni351   1.938       .  S
O345       Ni346   1.932       .  S
Ni346       O350   1.879       .  S
Ni346       O348   1.873       .  S
Ni346       O970   1.905       .  S
O347       Ni352   1.969       .  S
C349        O990   1.258   1_545  A
O350        C989   1.258       .  A
Ni352       O976   1.916       .  S
Ni352       O650   1.913       .  S
N354        C358   1.355       .  A
N354        C355   1.358       .  A
C355        C356   1.381       .  A
C355        C491   1.464       .  S
C356        C357   1.370       .  A
C356        H359   1.081       .  S
C357        C358   1.379       .  A
C357        H360   1.083       .  S
C358        C421   1.460       .  S
N361        C365   1.365       .  A
N361        C362   1.363       .  A
N361        C415   1.450       .  S
C362        C363   1.378   1_655  A
C362        C389   1.469   1_655  S
C363        C364   1.366   1_455  A
C363        H366   1.083       .  S
C364        C365   1.382       .  A
C364        H367   1.083       .  S
O368       Ni374   1.945       .  S
O368        C389   1.272       .  A
O369       Ni392   1.902       .  S
O369        C378   1.273       .  A
O370       Ni374   1.919       .  S
O370       Ni392   1.913       .  S
O370       Ni386   1.905       .  S
O370        H393   0.966       .  S
C371        O388   1.259       .  A
C371        O380   1.276       .  A
O372       Ni391   1.940       .  S
O372        C378   1.275       .  A
O373       Ni391   1.896       .  S
O373        C375   1.264       .  A
Ni374       O377   1.927       .  S
Ni374       O379   1.902       .  S
C375        C478   1.460       .  S
C375        O385   1.269       .  A
O376       Ni392   1.916       .  S
O376        C382   1.270       .  A
O377        C382   1.271       .  A
C378        N394   1.442       .  S
O379        C381   1.273       .  A
O380       Ni391   1.967       .  S
C381        N401   1.450   1_455  S
C381        O387   1.283       .  A
C382        C555   1.464       .  S
H383        O384   0.967       .  S
O384       Ni392   1.920       .  S
O384       Ni386   1.906       .  S
O384       Ni391   1.938       .  S
O385       Ni386   1.932       .  S
Ni386       O390   1.879       .  S
Ni386       O388   1.873       .  S
O387       Ni392   1.969       .  S
C389        O390   1.258       .  A
N394        C398   1.355       .  A
N394        C395   1.358       .  A
C395        C396   1.381       .  A
C395        C531   1.464       .  S
C396        C397   1.370       .  A
C396        H399   1.081       .  S
C397        C398   1.379       .  A
C397        H400   1.083       .  S
C398        C461   1.460       .  S
N401        C405   1.365   1_655  A
N401        C402   1.363       .  A
C402        C403   1.378       .  A
C402        C418   1.469       .  S
C403        C404   1.366       .  A
C403        H406   1.083       .  S
C404        C405   1.382   1_655  A
C404        H407   1.083       .  S
C405        C462   1.465       .  S
O408       Ni414   1.940       .  S
O408        C429   1.275       .  A
O409       Ni432   1.879       .  S
O409        C418   1.258       .  A
O410       Ni414   1.938       .  S
O410       Ni432   1.906       .  S
O410       Ni426   1.920       .  S
O410        H433   0.967       .  S
C411        C635   1.464       .  S
C411        O428   1.270       .  A
C411        O420   1.271       .  A
O412       Ni431   1.945       .  S
O412        C418   1.272       .  A
O413       Ni431   1.902       .  S
O413        C415   1.273       .  A
Ni414       O417   1.967       .  S
Ni414       O419   1.896       .  S
C415        O425   1.283       .  A
O416       Ni432   1.873       .  S
O416        C422   1.259       .  A
O417        C422   1.276       .  A
O419        C421   1.264       .  A
O420       Ni431   1.927       .  S
C421        O427   1.269       .  A
C422        C445   1.465       .  S
H423        O424   0.966       .  S
O424       Ni432   1.905       .  S
O424       Ni426   1.913       .  S
O424       Ni431   1.919       .  S
O425       Ni426   1.969       .  S
Ni426       O430   1.902       .  S
Ni426       O428   1.916       .  S
O427       Ni432   1.932       .  S
C429        N434   1.442       .  S
C429        O430   1.273       .  A
N434        C438   1.355       .  A
N434        C435   1.358       .  A
C435       C1076   1.381       .  A
C435       C1262   1.464       .  S
C436       C1075   1.381       .  A
C436       C1077   1.370       .  A
C436        H439   1.081   1_565  S
C437       C1076   1.370       .  A
C437        C438   1.379       .  A
C437        H440   1.083       .  S
N441       C1085   1.365       .  A
N441        C442   1.363   1_565  A
N441        C981   1.450   1_565  S
C442        C443   1.378   1_655  A
C442        C458   1.469   1_655  S
C443       C1084   1.366   1_455  A
C443        H446   1.083       .  S
C444       C1083   1.366   1_655  A
C444        C445   1.382       .  A
C444        H447   1.083       .  S
C445       N1081   1.365       .  A
O448       Ni454   1.940   1_554  S
O448        C469   1.275       .  A
O449       Ni472   1.879       .  S
O449        C458   1.258       .  A
O450       Ni454   1.938       .  S
O450       Ni472   1.906       .  S
O450       Ni466   1.920   1_556  S
O450        H473   0.967   1_556  S
C451       C1235   1.464   1_545  S
C451        O468   1.270       .  A
C451       O1100   1.271   1_545  A
O452       Ni471   1.945       .  S
O452        C458   1.272       .  A
O453       Ni471   1.902   1_554  S
Ni454       O457   1.967       .  S
Ni454       O459   1.896       .  S
O456       Ni472   1.873       .  S
O456        C462   1.259       .  A
O457        C462   1.276       .  A
O459        C461   1.264       .  A
O460      Ni1111   1.927   1_554  S
O460       C1091   1.271       .  A
C461        O467   1.269       .  A
H463        O464   0.966       .  S
O464       Ni472   1.905       .  S
O464       Ni466   1.913   1_556  S
O464       Ni471   1.919       .  S
O465       Ni466   1.969       .  S
Ni466       O470   1.902       .  S
Ni466       O468   1.916       .  S
O467       Ni472   1.932       .  S
C469        O470   1.273       .  A
Ni471      O1100   1.927   1_546  S
N474        C478   1.355       .  A
C475        C582   1.464       .  S
C476        C477   1.370       .  A
C476        H479   1.081       .  S
C477        C478   1.379       .  A
C477        H480   1.083       .  S
N481        C485   1.365       .  A
N481        C482   1.363       .  A
N481        C581   1.450       .  S
C482        C483   1.378       .  A
C482        C498   1.469       .  S
C483        C484   1.366       .  A
C483        H486   1.083       .  S
C484        C485   1.382       .  A
C484        H487   1.083       .  S
C485        C542   1.465       .  S
O488       Ni494   1.940       .  S
O489       Ni512   1.879       .  S
O489        C498   1.258       .  A
O490       Ni494   1.938       .  S
O490       Ni512   1.906       .  S
O490        H513   0.967       .  S
C491        O508   1.270       .  A
C491        O500   1.271       .  A
O492       Ni511   1.945       .  S
O492        C498   1.272       .  A
O493        C495   1.273       .  A
Ni494       O497   1.967       .  S
Ni494       O499   1.896       .  S
C495        N561   1.450       .  S
C495        O505   1.283       .  A
O496       Ni512   1.873       .  S
O496        C502   1.259       .  A
O497        C502   1.276       .  A
O499        C501   1.264       .  A
C501        C638   1.460       .  S
C501        O507   1.269       .  A
C502        C525   1.465       .  S
H503        O504   0.966       .  S
O504       Ni512   1.905       .  S
O504       Ni511   1.919       .  S
O505       Ni506   1.969       .  S
Ni506       O510   1.902       .  S
Ni506       O508   1.916       .  S
O507       Ni512   1.932       .  S
C509        N514   1.442       .  S
C509        O510   1.273       .  A
N514        C518   1.355       .  A
N514        C515   1.358       .  A
C515        C516   1.381       .  A
C516        C517   1.370       .  A
C516        H519   1.081       .  S
C517        C518   1.379       .  A
C517        H520   1.083       .  S
C518        C615   1.460       .  S
N521        C525   1.365       .  A
N521        C522   1.363       .  A
N521        C621   1.450       .  S
C522        C523   1.378       .  A
C522        C538   1.469       .  S
C523        C524   1.366       .  A
C523        H526   1.083       .  S
C524        C525   1.382       .  A
C524        H527   1.083       .  S
O528       Ni534   1.940       .  S
O528        C549   1.275       .  A
O529       Ni552   1.879       .  S
O529       C1178   1.258       .  A
O530       Ni534   1.938       .  S
O530       Ni552   1.906       .  S
O530       Ni546   1.920       .  S
O530        H553   0.967       .  S
C531        O548   1.270       .  A
C531        O540   1.271       .  A
O532       Ni551   1.945       .  S
O532        C538   1.272       .  A
O533       Ni551   1.902       .  S
O533       C1175   1.273       .  A
Ni534       O537   1.967       .  S
Ni534       O539   1.896       .  S
C535       N1241   1.450       .  S
C535       O1173   1.273       .  A
C535        O545   1.283       .  A
O536       Ni552   1.874       .  S
O536        C542   1.259       .  A
O537        C542   1.276       .  A
C538       O1169   1.258   1_545  A
O539        C541   1.264       .  A
O540       Ni551   1.927       .  S
C541        C598   1.460       .  S
C541        O547   1.269       .  A
H543        O544   0.966   1_545  S
O544      Ni1192   1.905       .  S
O544      Ni1186   1.913       .  S
O544       Ni551   1.919   1_565  S
O545       Ni546   1.969       .  S
Ni546       O550   1.902       .  S
Ni546      O1188   1.916       .  S
Ni546      O1184   1.913       .  S
O547       Ni552   1.932       .  S
O548      Ni1186   1.916   1_545  S
C549        N554   1.442       .  S
C549        O550   1.273       .  A
Ni552      O1184   1.905       .  S
N554        C558   1.355       .  A
N554        C555   1.358       .  A
C555        C556   1.381       .  A
C556        C557   1.370       .  A
C556        H559   1.081       .  S
C557        C558   1.379       .  A
C557        H560   1.083       .  S
C558        C575   1.460       .  S
N561        C565   1.365       .  A
N561        C562   1.363       .  A
C562        C563   1.378       .  A
C562        C589   1.469       .  S
C563        C564   1.366       .  A
C563        H566   1.083       .  S
C564        C565   1.382       .  A
C564        H567   1.083       .  S
C565        C611   1.465       .  S
O568       Ni574   1.945       .  S
O568        C589   1.272       .  A
O569       Ni592   1.902       .  S
O569        C578   1.273       .  A
O570       Ni574   1.919       .  S
O570       Ni592   1.913   1_556  S
O570       Ni586   1.905       .  S
O570        H593   0.966       .  S
C571        C605   1.465       .  S
C571        O588   1.259       .  A
C571        O580   1.276       .  A
O572       Ni591   1.940   1_554  S
O572        C578   1.275       .  A
O573       Ni591   1.896       .  S
O573        C575   1.264       .  A
Ni574       O577   1.927   1_556  S
Ni574       O579   1.902   1_556  S
C575        O585   1.269       .  A
O576       Ni592   1.916       .  S
O576        C582   1.270       .  A
O577        C582   1.271       .  A
O580       Ni591   1.967       .  S
H583        O584   0.967   1_554  S
O584       Ni592   1.920   1_556  S
O584       Ni586   1.906       .  S
O584       Ni591   1.938       .  S
O585       Ni586   1.932       .  S
Ni586       O590   1.879       .  S
Ni586       O588   1.873       .  S
O587       Ni592   1.969       .  S
C589        O590   1.258       .  A
N594        C598   1.355       .  A
C595        C916   1.381       .  A
C595       C1091   1.464       .  S
C596        C915   1.381       .  A
C596       C1237   1.370       .  A
C596        H599   1.081   1_565  S
C597       C1236   1.370       .  A
C597        C598   1.379       .  A
C597        H600   1.083       .  S
N601       C1245   1.365       .  A
N601        C602   1.363   1_565  A
N601       C1175   1.450   1_565  S
C602        C603   1.378       .  A
C602        C629   1.469       .  S
C603       C1244   1.366       .  A
C603        H606   1.083       .  S
C604       C1243   1.366       .  A
C604        C605   1.382       .  A
C604        H607   1.083       .  S
C605       N1241   1.365       .  A
O608       Ni614   1.945       .  S
O608        C629   1.272       .  A
O609       Ni632   1.902       .  S
O609        C618   1.273       .  A
O610       Ni614   1.919       .  S
O610       Ni632   1.913       .  S
O610       Ni626   1.905       .  S
O610        H633   0.966       .  S
C611        O628   1.259       .  A
C611        O620   1.276       .  A
O612       Ni631   1.940       .  S
O612        C618   1.275       .  A
O613       Ni631   1.896       .  S
O613        C615   1.264       .  A
Ni614      O1257   1.927   1_545  S
Ni614       O619   1.902       .  S
C615        O625   1.269       .  A
O616       Ni632   1.916       .  S
O616        C622   1.270       .  A
O617      Ni1254   1.927       .  S
O617       C1262   1.271       .  A
C618        N634   1.442       .  S
O619        C621   1.273       .  A
O620       Ni631   1.967       .  S
C621        O627   1.283       .  A
C622       C1075   1.464   1_545  S
C622       O1257   1.271   1_545  A
H623        O624   0.967       .  S
O624       Ni632   1.920       .  S
O624       Ni626   1.906       .  S
O624       Ni631   1.938       .  S
O625       Ni626   1.932       .  S
Ni626       O630   1.879       .  S
Ni626       O628   1.874       .  S
O627       Ni632   1.969       .  S
C629        O630   1.258       .  A
N634        C638   1.355       .  A
N634        C635   1.358       .  A
C635        C636   1.381       .  A
C636        C637   1.370       .  A
C636        H639   1.081       .  S
C637        C638   1.379       .  A
C637        H640   1.083       .  S
N641        C645   1.365   1_655  A
N641        C642   1.363       .  A
N641        C775   1.450   1_655  S
C642        C643   1.378       .  A
C642        C669   1.469       .  S
C643        C644   1.366       .  A
C643        H646   1.083       .  S
C644        C645   1.382   1_655  A
C644        H647   1.083       .  S
C645        C691   1.465       .  S
O648       Ni654   1.945   1_554  S
O648        C669   1.272       .  A
O649       Ni672   1.902       .  S
O649        C658   1.273       .  A
O650       Ni654   1.919       .  S
O650        H673   0.966       .  S
C651        C685   1.465       .  S
C651        O668   1.259       .  A
C651        O660   1.276       .  A
O652       Ni671   1.940       .  S
O652        C978   1.275       .  A
O653       Ni671   1.896   1_554  S
O653        C655   1.264       .  A
Ni654       O977   1.927       .  S
Ni654       O979   1.902       .  S
C655        C758   1.460       .  S
C655        O665   1.269       .  A
O656        C662   1.270       .  A
O657       Ni974   1.927       .  S
O657        C662   1.271       .  A
C658        N674   1.442       .  S
C658        O972   1.275       .  A
O659       Ni974   1.902       .  S
O660       Ni671   1.967   1_554  S
C661        O667   1.283   1_545  A
C662        C835   1.464       .  S
H663        O664   0.967       .  S
O664       Ni992   1.920       .  S
O664       Ni666   1.906   1_556  S
O664       Ni671   1.938       .  S
O665       Ni666   1.932       .  S
Ni666       O670   1.879       .  S
Ni666       O668   1.873       .  S
O667       Ni672   1.969       .  S
Ni672       O984   1.920       .  S
N674        C678   1.355       .  A
N674        C675   1.358       .  A
C675        C676   1.381       .  A
C675        C811   1.464       .  S
C676        C677   1.370       .  A
C676        H679   1.081       .  S
C677        C678   1.379       .  A
C677        H680   1.083       .  S
C678        C741   1.460       .  S
N681        C685   1.365       .  A
N681        C682   1.363       .  A
N681        C735   1.450       .  S
C682        C683   1.378   1_655  A
C682        C709   1.469   1_655  S
C683        C684   1.366   1_455  A
C683        H686   1.083       .  S
C684        C685   1.382       .  A
C684        H687   1.083   1_554  S
O688       Ni694   1.945       .  S
O688        C709   1.272       .  A
O689       Ni712   1.902       .  S
O689        C698   1.273       .  A
O690       Ni694   1.919       .  S
O690       Ni712   1.913       .  S
O690       Ni706   1.905       .  S
O690        H713   0.966       .  S
C691        O708   1.259       .  A
C691        O700   1.276       .  A
O692       Ni711   1.940       .  S
O692        C698   1.275       .  A
O693       Ni711   1.896       .  S
O693        C695   1.264       .  A
Ni694       O697   1.927       .  S
Ni694       O699   1.902       .  S
C695        C798   1.460       .  S
C695        O705   1.269       .  A
O696       Ni712   1.916       .  S
O696        C702   1.270       .  A
O697        C702   1.271       .  A
C698        N714   1.442       .  S
O699        C701   1.273       .  A
O700       Ni711   1.967       .  S
C701        N721   1.450   1_455  S
C701        O707   1.283       .  A
C702        C875   1.464       .  S
H703        O704   0.967       .  S
O704       Ni712   1.920       .  S
O704       Ni706   1.906       .  S
O704       Ni711   1.938       .  S
O705       Ni706   1.932       .  S
Ni706       O710   1.879       .  S
Ni706       O708   1.873       .  S
O707       Ni712   1.969       .  S
C709        O710   1.258       .  A
N714        C718   1.355       .  A
N714        C715   1.358       .  A
C715        C716   1.381       .  A
C715        C851   1.464       .  S
C716        C717   1.370       .  A
C716        H719   1.081       .  S
C717        C718   1.379       .  A
C717        H720   1.083       .  S
C718        C781   1.460       .  S
N721        C725   1.365   1_655  A
N721        C722   1.363       .  A
C722        C723   1.378       .  A
C722        C738   1.469       .  S
C723        C724   1.366       .  A
C723        H726   1.083       .  S
C724        C725   1.382   1_655  A
C724        H727   1.083       .  S
C725        C782   1.465       .  S
O728       Ni734   1.940       .  S
O728        C749   1.275       .  A
O729       Ni752   1.879       .  S
O729        C738   1.258       .  A
O730       Ni734   1.938       .  S
O730       Ni752   1.906       .  S
O730       Ni746   1.920       .  S
O730        H753   0.967       .  S
C731        C955   1.464       .  S
C731        O748   1.270       .  A
C731        O740   1.271       .  A
O732       Ni751   1.945       .  S
O732        C738   1.272       .  A
O733       Ni751   1.902       .  S
O733        C735   1.273       .  A
Ni734       O737   1.967       .  S
Ni734       O739   1.896       .  S
C735        O745   1.283       .  A
O736       Ni752   1.873       .  S
O736        C742   1.259       .  A
O737        C742   1.276       .  A
O739        C741   1.264       .  A
O740       Ni751   1.927       .  S
C741        O747   1.269       .  A
C742        C765   1.465       .  S
H743        O744   0.966       .  S
O744       Ni752   1.905       .  S
O744       Ni746   1.913       .  S
O744       Ni751   1.919       .  S
O745       Ni746   1.969       .  S
Ni746       O750   1.902       .  S
Ni746       O748   1.916       .  S
O747       Ni752   1.932       .  S
C749        N754   1.442       .  S
C749        O750   1.273       .  A
N754        C758   1.355       .  A
N754        C755   1.358       .  A
C756        H759   1.081       .  S
C757        C758   1.379       .  A
C757        H760   1.083   1_554  S
N761        C762   1.363       .  A
C762        C763   1.378   1_655  A
C762        C778   1.469   1_655  S
C763        H766   1.083       .  S
C764        C765   1.382   1_545  A
C764        H767   1.083   1_545  S
O768       Ni774   1.940       .  S
O768        C789   1.275       .  A
O769       Ni792   1.879       .  S
O769        C778   1.258       .  A
O770       Ni774   1.938       .  S
O770       Ni792   1.906       .  S
O770       Ni786   1.920       .  S
O770        H793   0.967       .  S
C771        O788   1.270       .  A
O772       Ni791   1.945       .  S
O772        C778   1.272       .  A
O773       Ni791   1.902       .  S
O773       C1095   1.273       .  A
Ni774       O777   1.967       .  S
Ni774       O779   1.896       .  S
C775       O1093   1.273       .  A
C775       O1105   1.283       .  A
O776       Ni792   1.873       .  S
O776        C782   1.259       .  A
O777        C782   1.276       .  A
O779        C781   1.264       .  A
C781        O787   1.269       .  A
H783        O784   0.966       .  S
O784       Ni792   1.905       .  S
O784       Ni786   1.913       .  S
O784       Ni791   1.919       .  S
O785       Ni786   1.969       .  S
O785       C1095   1.283       .  A
Ni786       O790   1.902       .  S
Ni786       O788   1.916       .  S
O787       Ni792   1.932       .  S
C789       N1114   1.442       .  S
C789        O790   1.273       .  A
N794        C798   1.355       .  A
N794       C1115   1.358       .  A
N794       C1109   1.442       .  S
C795       N1114   1.358       .  A
C795       C1116   1.381       .  A
C795        C902   1.464       .  S
C796       C1115   1.381       .  A
C796        C797   1.370       .  A
C796        H799   1.081       .  S
C797        C798   1.379       .  A
C797        H800   1.083       .  S
N801        C805   1.365       .  A
N801        C802   1.363       .  A
N801        C901   1.450       .  S
C802        C803   1.378       .  A
C802        C818   1.469       .  S
C803        C804   1.366       .  A
C803        H806   1.083       .  S
C804        C805   1.382       .  A
C804        H807   1.083       .  S
C805        C862   1.465       .  S
O808       Ni814   1.940       .  S
O808       C1149   1.275       .  A
O809       Ni832   1.879       .  S
O809        C818   1.258       .  A
O810       Ni814   1.938       .  S
O810       Ni832   1.906   1_556  S
O810      Ni1146   1.920       .  S
O810        H833   0.967       .  S
C811        O828   1.270       .  A
C811        O820   1.271       .  A
O812       Ni831   1.945   1_554  S
O812        C818   1.272       .  A
O813      Ni1151   1.902       .  S
O813        C815   1.273       .  A
Ni814       O817   1.967   1_556  S
Ni814       O819   1.896   1_556  S
C815        N881   1.450       .  S
C815        O825   1.283       .  A
O816       Ni832   1.873       .  S
O816        C822   1.259       .  A
O817        C822   1.276       .  A
O819        C821   1.264       .  A
O820      Ni1151   1.927       .  S
C821        C958   1.460       .  S
C821        O827   1.269       .  A
C822        C845   1.465       .  S
H823        O824   0.966       .  S
O824       Ni832   1.905   1_556  S
O824      Ni1146   1.913       .  S
O824       Ni831   1.919       .  S
O825       Ni826   1.969       .  S
Ni826       O830   1.902       .  S
Ni826       O828   1.916       .  S
Ni826      O1130   1.920       .  S
Ni826      O1144   1.913       .  S
O827       Ni832   1.932       .  S
C829        N834   1.442       .  S
C829       O1128   1.275       .  A
C829        O830   1.273       .  A
Ni831      O1133   1.902       .  S
Ni831      O1140   1.927       .  S
N834        C838   1.355       .  A
N834        C835   1.358       .  A
C835        C836   1.381       .  A
C836        C837   1.370       .  A
C836        H839   1.081       .  S
C837        C838   1.379       .  A
C837        H840   1.083       .  S
C838        C935   1.460       .  S
N841        C845   1.365       .  A
N841        C842   1.363       .  A
N841        C941   1.450       .  S
C842        C843   1.378       .  A
C842        C858   1.469       .  S
C843        C844   1.366       .  A
C843        H846   1.083       .  S
C844        C845   1.382       .  A
C844        H847   1.083   1_554  S
O848       Ni854   1.940       .  S
O848        C869   1.275       .  A
O849       Ni872   1.879       .  S
O850       Ni854   1.938       .  S
O850       Ni872   1.906       .  S
O850       Ni866   1.920       .  S
O850        H873   0.967       .  S
C851        O868   1.270       .  A
C851        O860   1.271       .  A
O852       Ni871   1.945       .  S
O852        C858   1.272       .  A
O853       Ni871   1.902       .  S
Ni854       O857   1.967       .  S
Ni854       O859   1.896       .  S
C855        O865   1.283   1_545  A
O856       Ni872   1.874       .  S
O856        C862   1.259       .  A
O857        C862   1.276       .  A
O859        C861   1.264       .  A
O860       Ni871   1.927       .  S
C861        C918   1.460       .  S
C861        O867   1.269       .  A
H863        O864   0.966       .  S
O864       Ni871   1.919       .  S
O865       Ni866   1.969       .  S
Ni866       O870   1.902       .  S
O867       Ni872   1.932       .  S
C869        N874   1.442       .  S
C869        O870   1.273       .  A
N874        C878   1.355       .  A
N874        C875   1.358       .  A
C875        C876   1.381       .  A
C876        C877   1.370       .  A
C876        H879   1.081       .  S
C877        C878   1.379       .  A
C877        H880   1.083       .  S
C878        C895   1.460       .  S
N881        C885   1.365       .  A
N881        C882   1.363       .  A
C882        C883   1.378       .  A
C882        C909   1.469       .  S
C883        C884   1.366       .  A
C883        H886   1.083       .  S
C884        C885   1.382       .  A
C884        H887   1.083       .  S
C885        C931   1.465       .  S
O888       Ni894   1.945       .  S
O888        C909   1.272       .  A
O889       Ni912   1.902       .  S
O889        C898   1.273       .  A
O890       Ni894   1.919       .  S
O890       Ni912   1.913       .  S
O890       Ni906   1.905       .  S
O890        H913   0.966       .  S
C891        C925   1.465       .  S
C891        O908   1.259       .  A
C891        O900   1.276       .  A
O892       Ni911   1.940       .  S
O892        C898   1.275       .  A
O893       Ni911   1.896       .  S
O893        C895   1.264       .  A
Ni894       O897   1.927       .  S
Ni894       O899   1.902       .  S
C895        O905   1.269       .  A
O896       Ni912   1.916       .  S
O896        C902   1.270       .  A
O897        C902   1.271       .  A
C898       N1234   1.442       .  S
O899       C1221   1.273       .  A
O900       Ni911   1.967       .  S
C901       O1219   1.273       .  A
C901       O1227   1.283       .  A
H903        O904   0.967       .  S
O904       Ni912   1.920       .  S
O904       Ni906   1.906       .  S
O904       Ni911   1.938       .  S
O905       Ni906   1.932       .  S
Ni906       O910   1.879       .  S
Ni906       O908   1.873       .  S
O907       Ni912   1.969       .  S
O907       C1221   1.283       .  A
C909        O910   1.258       .  A
N914        C918   1.355       .  A
N914       C1235   1.358       .  A
N914       C1218   1.442       .  S
C915       N1234   1.358       .  A
C916        H919   1.081       .  S
C917        C918   1.379       .  A
C917        H920   1.083       .  S
N921        C922   1.363       .  A
C922        C923   1.378       .  A
C922        C949   1.469       .  S
C923        H926   1.083       .  S
C924        C925   1.382   1_545  A
C924        H927   1.083   1_545  S
O928       Ni934   1.945       .  S
O928        C949   1.272       .  A
O929       Ni952   1.902       .  S
O929        C938   1.273       .  A
O930       Ni934   1.919       .  S
O930       Ni952   1.913       .  S
O930       Ni946   1.905       .  S
O930        H953   0.966       .  S
C931        O948   1.259       .  A
C931        O940   1.276       .  A
O932       Ni951   1.940       .  S
O932        C938   1.275       .  A
O933       Ni951   1.896       .  S
O933        C935   1.264       .  A
Ni934       O939   1.902       .  S
C935        O945   1.269       .  A
O936       Ni952   1.916       .  S
O936        C942   1.270       .  A
C938        N954   1.442       .  S
O939        C941   1.273       .  A
O940       Ni951   1.967       .  S
C941        O947   1.283       .  A
H943        O944   0.967       .  S
O944       Ni952   1.920       .  S
O944       Ni946   1.906       .  S
O944       Ni951   1.938       .  S
O945       Ni946   1.932       .  S
Ni946       O950   1.879       .  S
Ni946       O948   1.874       .  S
O947       Ni952   1.969       .  S
C949        O950   1.258       .  A
N954        C958   1.355       .  A
N954        C955   1.358       .  A
C955        C956   1.381       .  A
C956        C957   1.370       .  A
C956        H959   1.081       .  S
C957        C958   1.379       .  A
C957        H960   1.083   1_554  S
N961        C965   1.365   1_655  A
N961        C962   1.363       .  A
N961       C1095   1.450   1_655  S
C962        C963   1.378       .  A
C962        C989   1.469       .  S
C963        C964   1.366       .  A
C963        H966   1.083       .  S
C964        C965   1.382   1_655  A
C964        H967   1.083       .  S
C965       C1011   1.465       .  S
O968       Ni974   1.945       .  S
O968        C989   1.272       .  A
O969       Ni992   1.902       .  S
O969        C978   1.273       .  A
O970       Ni974   1.919       .  S
O970        H993   0.966       .  S
C971       C1005   1.465       .  S
C971        O988   1.259       .  A
C971        O980   1.276       .  A
O972       Ni991   1.940       .  S
O973       Ni991   1.896       .  S
O973        C975   1.264       .  A
C975       C1078   1.460       .  S
C975        O985   1.269       .  A
O976        C982   1.270       .  A
O977        C982   1.271       .  A
C978        N994   1.442       .  S
O980       Ni991   1.967       .  S
C981        O987   1.283   1_545  A
C982       C1155   1.464       .  S
H983        O984   0.967       .  S
O984       Ni986   1.906       .  S
O984       Ni991   1.938       .  S
O985       Ni986   1.932       .  S
Ni986       O990   1.879       .  S
Ni986       O988   1.873       .  S
O987       Ni992   1.969       .  S
N994        C998   1.355       .  A
N994        C995   1.358       .  A
C995        C996   1.381       .  A
C995       C1131   1.464       .  S
C996        C997   1.370       .  A
C996        H999   1.081       .  S
C997        C998   1.379       .  A
C997       H1000   1.083       .  S
C998       C1061   1.460       .  S
N1001      C1005   1.365       .  A
N1001      C1002   1.363       .  A
N1001      C1055   1.450       .  S
C1002      C1003   1.378   1_655  A
C1002      C1029   1.469   1_655  S
C1003      C1004   1.366   1_455  A
C1003      H1006   1.083       .  S
C1004      C1005   1.382       .  A
C1004      H1007   1.083       .  S
O1008     Ni1014   1.945       .  S
O1008      C1029   1.272       .  A
O1009     Ni1032   1.902       .  S
O1009      C1018   1.273       .  A
O1010     Ni1014   1.919       .  S
O1010     Ni1032   1.913       .  S
O1010     Ni1026   1.905       .  S
O1010      H1033   0.966       .  S
C1011      O1028   1.259       .  A
C1011      O1020   1.276       .  A
O1012     Ni1031   1.940       .  S
O1012      C1018   1.275       .  A
O1013     Ni1031   1.896       .  S
O1013      C1015   1.264       .  A
Ni1014     O1017   1.927       .  S
Ni1014     O1019   1.902       .  S
C1015      C1118   1.460       .  S
C1015      O1025   1.269       .  A
O1016     Ni1032   1.916       .  S
O1016      C1022   1.270       .  A
O1017      C1022   1.271       .  A
C1018      N1034   1.442       .  S
O1019      C1021   1.273       .  A
O1020     Ni1031   1.967       .  S
C1021      N1041   1.450   1_455  S
C1021      O1027   1.283       .  A
C1022      C1195   1.464       .  S
H1023      O1024   0.967       .  S
O1024     Ni1032   1.920       .  S
O1024     Ni1026   1.906       .  S
O1024     Ni1031   1.938       .  S
O1025     Ni1026   1.932       .  S
Ni1026     O1030   1.879       .  S
Ni1026     O1028   1.873       .  S
O1027     Ni1032   1.969       .  S
C1029      O1030   1.258       .  A
N1034      C1038   1.355       .  A
N1034      C1035   1.358       .  A
C1035      C1036   1.381       .  A
C1035      C1171   1.464       .  S
C1036      C1037   1.370       .  A
C1036      H1039   1.081       .  S
C1037      C1038   1.379       .  A
C1037      H1040   1.083       .  S
C1038      C1101   1.460       .  S
N1041      C1045   1.365   1_655  A
N1041      C1042   1.363       .  A
C1042      C1043   1.378       .  A
C1042      C1058   1.469       .  S
C1043      C1044   1.366       .  A
C1043      H1046   1.083       .  S
C1044      C1045   1.382   1_655  A
C1044      H1047   1.083       .  S
C1045      C1102   1.465       .  S
O1048     Ni1054   1.940       .  S
O1048      C1069   1.275       .  A
O1049     Ni1072   1.879       .  S
O1049      C1058   1.258       .  A
O1050     Ni1054   1.938       .  S
O1050     Ni1072   1.906       .  S
O1050     Ni1066   1.920       .  S
O1050      H1073   0.967       .  S
C1051      C1275   1.464       .  S
C1051      O1068   1.270       .  A
C1051      O1060   1.271       .  A
O1052     Ni1071   1.945       .  S
O1052      C1058   1.272       .  A
O1053     Ni1071   1.902       .  S
O1053      C1055   1.273       .  A
Ni1054     O1057   1.967       .  S
Ni1054     O1059   1.896       .  S
C1055      O1065   1.283       .  A
O1056     Ni1072   1.873       .  S
O1056      C1062   1.259       .  A
O1057      C1062   1.276       .  A
O1059      C1061   1.264       .  A
O1060     Ni1071   1.927       .  S
C1061      O1067   1.269       .  A
C1062      C1085   1.465       .  S
H1063      O1064   0.966       .  S
O1064     Ni1072   1.905       .  S
O1064     Ni1066   1.913       .  S
O1064     Ni1071   1.919       .  S
O1065     Ni1066   1.969       .  S
Ni1066     O1070   1.902       .  S
Ni1066     O1068   1.916       .  S
O1067     Ni1072   1.932       .  S
C1069      N1074   1.442       .  S
C1069      O1070   1.273       .  A
N1074      C1078   1.355       .  A
N1074      C1075   1.358       .  A
C1076      H1079   1.081       .  S
C1077      C1078   1.379       .  A
C1077      H1080   1.083       .  S
N1081      C1082   1.363       .  A
C1082      C1083   1.378   1_655  A
C1082      C1098   1.469   1_655  S
C1083      H1086   1.083       .  S
C1084      C1085   1.382   1_545  A
C1084      H1087   1.083   1_545  S
O1088     Ni1094   1.940   1_554  S
O1088      C1109   1.275       .  A
O1089     Ni1112   1.879       .  S
O1089      C1098   1.258       .  A
O1090     Ni1094   1.938       .  S
O1090     Ni1112   1.906       .  S
O1090     Ni1106   1.920   1_556  S
O1090      H1113   0.967   1_556  S
C1091      O1108   1.270       .  A
O1092     Ni1111   1.945       .  S
O1092      C1098   1.272       .  A
O1093     Ni1111   1.902   1_554  S
Ni1094     O1097   1.967       .  S
Ni1094     O1099   1.896       .  S
O1096     Ni1112   1.873       .  S
O1096      C1102   1.259       .  A
O1097      C1102   1.276       .  A
O1099      C1101   1.264       .  A
C1101      O1107   1.269       .  A
H1103      O1104   0.966       .  S
O1104     Ni1112   1.905       .  S
O1104     Ni1106   1.913   1_556  S
O1104     Ni1111   1.919       .  S
O1105     Ni1106   1.969       .  S
Ni1106     O1110   1.902       .  S
Ni1106     O1108   1.916       .  S
O1107     Ni1112   1.932       .  S
C1109      O1110   1.273       .  A
N1114      C1118   1.355       .  A
C1115      C1222   1.464       .  S
C1116      C1117   1.370       .  A
C1116      H1119   1.081       .  S
C1117      C1118   1.379       .  A
C1117      H1120   1.083       .  S
N1121      C1125   1.365       .  A
N1121      C1122   1.363       .  A
N1121      C1221   1.450       .  S
C1122      C1123   1.378       .  A
C1122      C1138   1.469       .  S
C1123      C1124   1.366       .  A
C1123      H1126   1.083       .  S
C1124      C1125   1.382       .  A
C1124      H1127   1.083       .  S
C1125      C1182   1.465       .  S
O1128     Ni1134   1.940       .  S
O1129     Ni1152   1.879       .  S
O1129      C1138   1.258       .  A
O1130     Ni1134   1.938       .  S
O1130     Ni1152   1.906       .  S
O1130      H1153   0.967       .  S
C1131      O1148   1.270       .  A
C1131      O1140   1.271       .  A
O1132     Ni1151   1.945       .  S
O1132      C1138   1.272       .  A
O1133      C1135   1.273       .  A
Ni1134     O1137   1.967       .  S
Ni1134     O1139   1.896       .  S
C1135      N1201   1.450       .  S
C1135      O1145   1.283       .  A
O1136     Ni1152   1.873       .  S
O1136      C1142   1.259       .  A
O1137      C1142   1.276       .  A
O1139      C1141   1.264       .  A
C1141      C1278   1.460       .  S
C1141      O1147   1.269       .  A
C1142      C1165   1.465       .  S
H1143      O1144   0.966       .  S
O1144     Ni1152   1.905       .  S
O1144     Ni1151   1.919       .  S
O1145     Ni1146   1.969       .  S
Ni1146     O1150   1.902       .  S
Ni1146     O1148   1.916       .  S
O1147     Ni1152   1.932       .  S
C1149      N1154   1.442       .  S
C1149      O1150   1.273       .  A
N1154      C1158   1.355       .  A
N1154      C1155   1.358       .  A
C1155      C1156   1.381       .  A
C1156      C1157   1.370       .  A
C1156      H1159   1.081       .  S
C1157      C1158   1.379       .  A
C1157      H1160   1.083       .  S
C1158      C1255   1.460       .  S
N1161      C1165   1.365       .  A
N1161      C1162   1.363       .  A
N1161      C1261   1.450       .  S
C1162      C1163   1.378       .  A
C1162      C1178   1.469       .  S
C1163      C1164   1.366       .  A
C1163      H1166   1.083       .  S
C1164      C1165   1.382       .  A
C1164      H1167   1.083       .  S
O1168     Ni1174   1.940       .  S
O1168      C1189   1.275       .  A
O1169     Ni1192   1.879       .  S
O1170     Ni1174   1.938       .  S
O1170     Ni1192   1.906       .  S
O1170     Ni1186   1.920       .  S
O1170      H1193   0.967       .  S
C1171      O1188   1.270       .  A
C1171      O1180   1.271       .  A
O1172     Ni1191   1.945       .  S
O1172      C1178   1.272       .  A
O1173     Ni1191   1.902       .  S
Ni1174     O1177   1.967       .  S
Ni1174     O1179   1.896       .  S
C1175      O1185   1.283   1_545  A
O1176     Ni1192   1.874       .  S
O1176      C1182   1.259       .  A
O1177      C1182   1.276       .  A
O1179      C1181   1.264       .  A
O1180     Ni1191   1.927       .  S
C1181      C1238   1.460       .  S
C1181      O1187   1.269       .  A
H1183      O1184   0.966       .  S
O1184     Ni1191   1.919       .  S
O1185     Ni1186   1.969       .  S
Ni1186     O1190   1.902       .  S
O1187     Ni1192   1.932       .  S
C1189      N1194   1.442       .  S
C1189      O1190   1.273       .  A
N1194      C1198   1.355       .  A
N1194      C1195   1.358       .  A
C1195      C1196   1.381       .  A
C1196      C1197   1.370       .  A
C1196      H1199   1.081       .  S
C1197      C1198   1.379       .  A
C1197      H1200   1.083       .  S
C1198      C1215   1.460       .  S
N1201      C1205   1.365       .  A
N1201      C1202   1.363       .  A
C1202      C1203   1.378       .  A
C1202      C1229   1.469       .  S
C1203      C1204   1.366       .  A
C1203      H1206   1.083       .  S
C1204      C1205   1.382       .  A
C1204      H1207   1.083       .  S
C1205      C1251   1.465       .  S
O1208     Ni1214   1.945       .  S
O1208      C1229   1.272       .  A
O1209     Ni1232   1.902       .  S
O1209      C1218   1.273       .  A
O1210     Ni1214   1.919       .  S
O1210     Ni1232   1.913   1_556  S
O1210     Ni1226   1.905       .  S
O1210      H1233   0.966       .  S
C1211      C1245   1.465       .  S
C1211      O1228   1.259       .  A
C1211      O1220   1.276       .  A
O1212     Ni1231   1.940   1_554  S
O1212      C1218   1.275       .  A
O1213     Ni1231   1.896       .  S
O1213      C1215   1.264       .  A
Ni1214     O1217   1.927   1_556  S
Ni1214     O1219   1.902   1_556  S
C1215      O1225   1.269       .  A
O1216     Ni1232   1.916       .  S
O1216      C1222   1.270       .  A
O1217      C1222   1.271       .  A
O1220     Ni1231   1.967       .  S
H1223      O1224   0.967   1_554  S
O1224     Ni1232   1.920   1_556  S
O1224     Ni1226   1.906       .  S
O1224     Ni1231   1.938       .  S
O1225     Ni1226   1.932       .  S
Ni1226     O1230   1.879       .  S
Ni1226     O1228   1.873       .  S
O1227     Ni1232   1.969       .  S
C1229      O1230   1.258       .  A
N1234      C1238   1.355       .  A
C1236      H1239   1.081       .  S
C1237      C1238   1.379       .  A
C1237      H1240   1.083       .  S
N1241      C1242   1.363       .  A
C1242      C1243   1.378       .  A
C1242      C1269   1.469       .  S
C1243      H1246   1.083       .  S
C1244      C1245   1.382   1_545  A
C1244      H1247   1.083   1_545  S
O1248     Ni1254   1.945       .  S
O1248      C1269   1.272       .  A
O1249     Ni1272   1.902       .  S
O1249      C1258   1.273       .  A
O1250     Ni1254   1.919       .  S
O1250     Ni1272   1.913       .  S
O1250     Ni1266   1.905       .  S
O1250      H1273   0.966       .  S
C1251      O1268   1.259       .  A
C1251      O1260   1.276       .  A
O1252     Ni1271   1.940       .  S
O1252      C1258   1.275       .  A
O1253     Ni1271   1.896       .  S
O1253      C1255   1.264       .  A
Ni1254     O1259   1.902       .  S
C1255      O1265   1.269       .  A
O1256     Ni1272   1.916       .  S
O1256      C1262   1.270       .  A
C1258      N1274   1.442       .  S
O1259      C1261   1.273       .  A
O1260     Ni1271   1.967       .  S
C1261      O1267   1.283       .  A
H1263      O1264   0.967       .  S
O1264     Ni1272   1.920       .  S
O1264     Ni1266   1.906       .  S
O1264     Ni1271   1.938       .  S
O1265     Ni1266   1.932       .  S
Ni1266     O1270   1.879       .  S
Ni1266     O1268   1.874       .  S
O1267     Ni1272   1.969       .  S
C1269      O1270   1.258       .  A
N1274      C1278   1.355       .  A
N1274      C1275   1.358       .  A
C1275      C1276   1.381       .  A
C1276      C1277   1.370       .  A
C1276      H1279   1.081       .  S
C1277      C1278   1.379       .  A
C1277      H1280   1.083       .  S
