geometry optimzed in LAMMPS
_audit_creation_date              2020-11-30 
_audit_creation_method            'lammps2cif' 
_symmetry_space_group_name_H-M    'P1' 
_symmetry_Int_Tables_number       1 
_symmetry_cell_setting            triclinic 
loop_ 
_symmetry_equiv_pos_as_xyz 
  x,y,z 
_cell_length_a                    34.56607087 
_cell_length_b                    34.529479457656514 
_cell_length_c                    34.392752368983565 
_cell_angle_alpha                 88.71921973801906 
_cell_angle_beta                  88.69198669574092 
_cell_angle_gamma                 91.18349015492201 
loop_ 
_atom_site_label 
_atom_site_type_symbol 
_atom_site_fract_x 
_atom_site_fract_y 
_atom_site_fract_z 
_atom_site_charge 
O1          O  0.53612666  0.05065686  0.86127695    -0.79200
O2          O  0.52814664  0.05969982  0.63860854    -0.80700
O3          O  0.61139245  0.04305935  0.74174504    -0.77700
O4          O  0.52079894  0.13071391  0.75909452    -0.76100
O5          O  0.45473670  0.12980716  0.76077746    -0.77900
O6          O  0.60864328  0.97703489  0.74354746    -0.78800
O7          O  0.55953794  0.09417755  0.68464057    -0.80200
O8          O  0.57170893  0.08122234  0.81217961    -0.80500
Eu9        Eu  0.54397719  0.06464208  0.74919451     2.39200
O10         O  0.48791974  0.06368277  0.71181030    -0.88000
O11         O  0.54325696  0.00898165  0.78963746    -0.91600
C12         C  0.56389271  0.07343881  0.84847419     1.03100
C13         C  0.55061244  0.08789132  0.64898407     1.02900
C14         C  0.62739346  0.00958205  0.74020541     1.02900
C15         C  0.48784619  0.14725210  0.76364474     1.00700
H16         H  0.56547212  0.01001791  0.69214119     0.30500
O17         O  0.54319134  0.00968847  0.70961261    -1.00400
H18         H  0.48927816  0.08446303  0.80796612     0.30500
O19         O  0.48881300  0.06277157  0.79077652    -1.02900
O20         O  0.44594814  0.95853295  0.64226858    -0.80100
O21         O  0.44137595  0.96347881  0.86451296    -0.79700
O22         O  0.55945909  0.92650684  0.68841124    -0.78100
O23         O  0.41456584  0.08998507  0.69016436    -0.81400
O24         O  0.40904717  0.08244987  0.81760188    -0.79300
O25         O  0.56967613  0.93502475  0.81315263    -0.77900
O26         O  0.45181864  0.88616220  0.76381557    -0.79500
O27         O  0.36438562  0.97494881  0.74537544    -0.81400
O28         O  0.51788986  0.88766632  0.75976218    -0.78100
O29         O  0.36465649  0.04090059  0.74716704    -0.80800
O30         O  0.53177976  0.96291111  0.64038810    -0.76500
O31         O  0.53535124  0.96412049  0.86181539    -0.76600
O32         O  0.44424118  0.05231799  0.86420689    -0.76200
O33         O  0.44129077  0.05322772  0.64207792    -0.79700
O34         O  0.41500305  0.92367878  0.69139777    -0.79100
O35         O  0.40300929  0.93602359  0.81859474    -0.77500
Eu36       Eu  0.48738731  0.00882057  0.67197227     2.39800
Eu37       Eu  0.48832261  0.00763543  0.83128365     2.39600
Eu38       Eu  0.54166053  0.95424656  0.75090974     2.38400
Eu39       Eu  0.43267872  0.06272503  0.75319541     2.39900
Eu40       Eu  0.43090824  0.95280318  0.75394756     2.39800
O41         O  0.43177681  0.00727506  0.79376822    -0.91900
O42         O  0.48626683  0.95361866  0.71311415    -0.90800
C43         C  0.42339704  0.93040251  0.65502594     1.03300
C44         C  0.41240517  0.94233346  0.85404280     1.02000
C45         C  0.55314494  0.93494823  0.65247638     1.01400
C46         C  0.41980309  0.08077283  0.65435893     1.03400
C47         C  0.41785148  0.07598870  0.85341892     1.02300
C48         C  0.56235269  0.94195794  0.84922432     1.01200
C49         C  0.48503242  0.87000897  0.76578519     1.01200
C50         C  0.34725534  0.00778626  0.74311943     1.03900
H51         H  0.48661342  0.93092244  0.81005894     0.31200
O52         O  0.48664953  0.95305639  0.79242939    -1.04000
H53         H  0.40998675  0.00806392  0.69653538     0.33300
O54         O  0.43214169  0.00820401  0.71309597    -1.06600
C55         C  0.68909637  0.20604686  0.49787519     0.87500
C56         C  0.66650630  0.18785785  0.53295244    -0.52800
C57         C  0.62745444  0.18417138  0.52817347     0.10400
C58         C  0.61454899  0.19826826  0.48743430     0.21300
C59         C  0.67849389  0.17902849  0.46436392    -0.53500
C60         C  0.63952168  0.17496950  0.45888016     0.10500
C61         C  0.66869270  0.24393067  0.48912768    -0.53000
C62         C  0.63030420  0.24039111  0.48246966     0.11100
H63         H  0.67962283  0.17472250  0.55800255     0.15600
H64         H  0.58300515  0.19511992  0.48269182     0.01300
H65         H  0.69987261  0.16457195  0.44653451     0.15900
H66         H  0.68386421  0.27184326  0.48841420     0.15700
O67         O  0.54265943  0.05204758  0.35817817    -0.79200
O68         O  0.54240299  0.04626653  0.13481486    -0.80700
O69         O  0.61682043  0.04212637  0.25105412    -0.77700
O70         O  0.52565674  0.12772860  0.23258479    -0.76100
O71         O  0.45970480  0.12570954  0.23821869    -0.77900
O72         O  0.61738717  0.97606210  0.25349486    -0.78800
O73         O  0.57695290  0.07757583  0.18075550    -0.80200
O74         O  0.57104238  0.08850393  0.30833542    -0.80500
Eu75       Eu  0.54966213  0.06226363  0.24606860     2.39200
O76         O  0.49350361  0.06055053  0.20924794    -0.88000
O77         O  0.54949992  0.00710200  0.28718953    -0.91600
C78         C  0.56555834  0.07952562  0.34477335     1.03100
C79         C  0.57057536  0.06875832  0.14514254     1.02900
C80         C  0.63444565  0.00971549  0.25436109     1.02900
C81         C  0.49214903  0.14346569  0.23054551     1.00700
H82         H  0.57258108  0.00577050  0.19272183     0.30500
O83         O  0.54946791  0.00604538  0.20895680    -1.00400
H84         H  0.49563087  0.08576694  0.30312074     0.30500
O85         O  0.49525226  0.06226044  0.28843361    -1.02900
O86         O  0.44674134  0.95947310  0.14381696    -0.80100
O87         O  0.45145306  0.95872140  0.36408611    -0.79700
O88         O  0.57430036  0.93112259  0.18552179    -0.78100
O89         O  0.41088677  0.07745772  0.18908516    -0.81400
O90         O  0.42119350  0.08649701  0.31507096    -0.79300
O91         O  0.57131046  0.92802397  0.31410552    -0.77900
O92         O  0.46177906  0.88299310  0.24605954    -0.79500
O93         O  0.37296860  0.96880650  0.26975785    -0.81400
O94         O  0.52771797  0.88286433  0.24355223    -0.78100
O95         O  0.37363583  0.03498239  0.26799467    -0.80800
O96         O  0.53886199  0.96080236  0.13870194    -0.76500
O97         O  0.54082434  0.96333570  0.36064412    -0.76600
O98         O  0.45214866  0.05309586  0.36264661    -0.76200
O99         O  0.44756883  0.05078477  0.14047833    -0.79700
O100        O  0.41180774  0.92913928  0.19315108    -0.79100
O101        O  0.42294404  0.92041681  0.31881991    -0.77500
Eu102      Eu  0.49348676  0.00524192  0.17091720     2.39800
Eu103      Eu  0.49534414  0.00674954  0.32985578     2.39600
Eu104      Eu  0.55020126  0.95087812  0.24986898     2.38400
Eu105      Eu  0.43899127  0.05914775  0.25162853     2.39900
Eu106      Eu  0.43947454  0.94894780  0.25466738     2.39800
O107        O  0.43959340  0.00438856  0.29273365    -0.91900
O108        O  0.49406457  0.95030334  0.21262532    -0.90800
C109        C  0.41955585  0.93610900  0.15677080     1.03300
C110        C  0.42986679  0.92964044  0.35415320     1.02000
C111        C  0.56589074  0.93781963  0.14961396     1.01400
C112        C  0.41981288  0.07225863  0.15297017     1.03400
C113        C  0.42880462  0.07967001  0.35117937     1.02300
C114        C  0.56452515  0.93712640  0.34983117     1.01200
C115        C  0.49420585  0.86571777  0.24164115     1.01200
C116        C  0.35670780  0.00176660  0.27431581     1.03900
H117        H  0.49611358  0.92705890  0.30820072     0.31200
O118        O  0.49557823  0.95017580  0.29194004    -1.04000
H119        H  0.41439411  0.00339612  0.19865158     0.33300
O120        O  0.43803345  0.00388732  0.21307208    -1.06600
C121        C  0.29456386  0.80969477  0.00725787     0.87500
C122        C  0.31356087  0.82981857  0.97141232    -0.52800
C123        C  0.31670688  0.86897699  0.97386500     0.10400
C124        C  0.30075687  0.88489809  0.01253053     0.21300
C125        C  0.32035164  0.82322067  0.04060244    -0.53500
C126        C  0.32314382  0.86252147  0.04354792     0.10500
C127        C  0.25609401  0.82957794  0.01364093    -0.53000
C128        C  0.25884248  0.86865900  0.01755065     0.11100
H129        H  0.32681804  0.81441636  0.94753746     0.15600
H130        H  0.30372315  0.91681512  0.01489506     0.01300
H131        H  0.33694526  0.80400558  0.05884595     0.15900
H132        H  0.22868583  0.81357425  0.01532784     0.15700
C133        C  0.69168036  0.81327742  0.99378322     0.87500
C134        C  0.66674705  0.82487657  0.02953375    -0.52800
C135        C  0.65897565  0.86364746  0.03048343     0.10400
C136        C  0.67665673  0.88722506  0.99586994     0.21300
C137        C  0.66807719  0.82834135  0.95919146    -0.53500
C138        C  0.66068959  0.86698041  0.96005488     0.10500
C139        C  0.72761635  0.83976586  0.99466916    -0.53000
C140        C  0.71983453  0.87809413  0.99634735     0.11100
H141        H  0.65547985  0.80430094  0.05150525     0.15600
H142        H  0.67068864  0.91868983  0.99677432     0.01300
H143        H  0.65546371  0.81021528  0.93733253     0.15900
H144        H  0.75693544  0.82899335  0.99516725     0.15700
C145        C  0.68522938  0.81172363  0.50717069     0.87500
C146        C  0.67481359  0.83890560  0.47324426    -0.52800
C147        C  0.63617929  0.84565536  0.47037028     0.10400
C148        C  0.61102678  0.82437587  0.50209373     0.21300
C149        C  0.66718285  0.83068765  0.54338387    -0.53500
C150        C  0.62864757  0.83781787  0.54048794     0.10500
C151        C  0.65998471  0.77507139  0.50237880    -0.53000
C152        C  0.62142906  0.78134134  0.49835991     0.11100
H153        H  0.69660729  0.85236573  0.45381599     0.15600
H154        H  0.57956246  0.82943850  0.49988141     0.01300
H155        H  0.68230220  0.83872028  0.56919849     0.15900
H156        H  0.67199356  0.74628377  0.50122173     0.15700
C157        C  0.29334544  0.20462223  0.00595566     0.87500
C158        C  0.31588148  0.19142132  0.04225051    -0.52800
C159        C  0.32436176  0.15277689  0.04292716     0.10400
C160        C  0.31027144  0.13104627  0.00721334     0.21300
C161        C  0.32010125  0.19239492  0.97191440    -0.53500
C162        C  0.32855009  0.15385928  0.97246533     0.10500
C163        C  0.25819824  0.17713495  0.00479937    -0.53000
C164        C  0.26700614  0.13897744  0.00512190     0.11100
H165        H  0.32566108  0.21080489  0.06456501     0.15600
H166        H  0.31691535  0.09969872  0.00751664     0.01300
H167        H  0.33237230  0.21235033  0.94992559     0.15900
H168        H  0.22864815  0.18707341  0.00290938     0.15700
C169        C  0.68824107  0.20533840  0.99397748     0.87500
C170        C  0.66136256  0.19143722  0.96163175    -0.52800
C171        C  0.66012381  0.15211033  0.95790880     0.10400
C172        C  0.68535116  0.13011653  0.98679489     0.21300
C173        C  0.67194087  0.18313188  0.03006951    -0.53500
C174        C  0.67064355  0.14374774  0.02693915     0.10500
C175        C  0.72740432  0.18738325  0.98503120    -0.53000
C176        C  0.72635752  0.14832969  0.98048901     0.11100
H177        H  0.64433473  0.21071257  0.94381820     0.15600
H178        H  0.68393716  0.09830780  0.98314421     0.01300
H179        H  0.65709461  0.19699623  0.05386782     0.15900
H180        H  0.75407732  0.20457906  0.98300052     0.15700
C181        C  0.29669900  0.20490271  0.49939644     0.87500
C182        C  0.31423546  0.18381732  0.46401655    -0.52800
C183        C  0.35297153  0.17659970  0.46646857     0.10400
C184        C  0.37070020  0.19102715  0.50431452     0.21300
C185        C  0.30691949  0.17792034  0.53401223    -0.53500
C186        C  0.34570763  0.17126243  0.53671901     0.10500
C187        C  0.32236375  0.24106942  0.50393222    -0.53000
C188        C  0.36065499  0.23390283  0.50690293     0.11100
H189        H  0.29741046  0.17173466  0.44089925     0.15600
H190        H  0.40216135  0.18570019  0.50656195     0.01300
H191        H  0.28566016  0.16582769  0.55486815     0.15900
H192        H  0.31097555  0.27008638  0.50594860     0.15700
C193        C  0.29116410  0.81351512  0.50442143     0.87500
C194        C  0.30850924  0.83572188  0.53865905    -0.52800
C195        C  0.34804059  0.83426660  0.54070308     0.10400
C196        C  0.36676460  0.81148731  0.50734468     0.21300
C197        C  0.31213869  0.83253827  0.46894044    -0.53500
C198        C  0.35152332  0.83177083  0.47030249     0.10500
C199        C  0.30716505  0.77287229  0.50801432    -0.53000
C200        C  0.34626121  0.77121301  0.50962748     0.11100
H201        H  0.29215965  0.85439745  0.55743411     0.15600
H202        H  0.39877555  0.81009237  0.50819227     0.01300
H203        H  0.29720565  0.84790663  0.44601556     0.15900
H204        H  0.28856841  0.74707976  0.51007631     0.15700
O205        O  0.86566941  0.76592029  0.53312278    -0.79200
O206        O  0.02061202  0.75434379  0.37439413    -0.80700
O207        O  0.91162720  0.82149403  0.41936892    -0.77700
O208        O  0.90926018  0.69335625  0.42395194    -0.76100
O209        O  0.94501666  0.64713366  0.45396905    -0.77900
O210        O  0.94163838  0.86792345  0.45485245    -0.78800
O211        O  0.95459379  0.75203070  0.37495472    -0.80200
O212        O  0.86510786  0.76522125  0.46667000    -0.80500
Eu213      Eu  0.93236796  0.75792323  0.44325665     2.39200
O214        O  0.98853465  0.72100135  0.44298077    -0.88000
O215        O  0.93322516  0.79567018  0.49921295    -0.91600
C216        C  0.84853270  0.76934411  0.50032870     1.03100
C217        C  0.98792508  0.75010419  0.35736132     1.02900
C218        C  0.91823248  0.85709647  0.42830692     1.02900
C219        C  0.91833939  0.65773326  0.43057424     1.00700
H220        H  0.98656864  0.81551035  0.41874087     0.30500
O221        O  0.98715128  0.79948321  0.44206581    -1.00400
H222        H  0.90906673  0.70117557  0.49889130     0.30500
O223        O  0.93212987  0.71739768  0.49902698    -1.02900
O224        O  0.10987426  0.77478056  0.46246396    -0.80100
O225        O  0.95345918  0.74590738  0.62197686    -0.79700
O226        O  0.02925717  0.87262632  0.44929426    -0.78100
O227        O  0.03450171  0.65194042  0.45168035    -0.81400
O228        O  0.94168409  0.64509684  0.54201710    -0.79300
O229        O  0.94246877  0.86731361  0.54406479    -0.77900
O230        O  0.06141971  0.82077769  0.57967001    -0.79500
O231        O  0.07122266  0.69773880  0.57141231    -0.81400
O232        O  0.03271071  0.86878133  0.54433278    -0.78100
O233        O  0.03578960  0.64990737  0.54287574    -0.80800
O234        O  0.05941318  0.82700047  0.41328959    -0.76500
O235        O  0.91276830  0.81844872  0.58078932    -0.76600
O236        O  0.90394762  0.69016949  0.57168362    -0.76200
O237        O  0.07043456  0.70093480  0.42136680    -0.79700
O238        O  0.10837102  0.77112684  0.52877047    -0.79100
O239        O  0.01958329  0.74806301  0.61892411    -0.77500
Eu240      Eu  0.04325102  0.76252304  0.44103725     2.39800
Eu241      Eu  0.93164545  0.75534551  0.55501508     2.39600
Eu242      Eu  0.98774210  0.83758734  0.49840093     2.38400
Eu243      Eu  0.98879769  0.67996993  0.49842515     2.39900
Eu244      Eu  0.04231796  0.75904137  0.55209489     2.39800
O245        O  0.98756281  0.71772163  0.55412010    -0.91900
O246        O  0.04338627  0.80030061  0.49691087    -0.90800
C247        C  0.12608241  0.77719035  0.49584047     1.03300
C248        C  0.98700493  0.74315826  0.63743027     1.02000
C249        C  0.05154905  0.86247741  0.42074750     1.01400
C250        C  0.06185922  0.66489173  0.42840680     1.03400
C251        C  0.91274211  0.65486841  0.56386080     1.02300
C252        C  0.91954049  0.85452553  0.57175166     1.01200
C253        C  0.05492004  0.85663042  0.57168268     1.01200
C254        C  0.06317225  0.66186502  0.56504185     1.03900
H255        H  0.98675701  0.81149687  0.57780224     0.31200
O256        O  0.98676800  0.79662568  0.55435535    -1.04000
H257        H  0.06758068  0.70674283  0.49610504     0.33300
O258        O  0.04403398  0.72132301  0.49644906    -1.06600
O259        O  0.87047123  0.24911817  0.53708791    -0.79200
O260        O  0.02769581  0.27112769  0.37728623    -0.80700
O261        O  0.91293494  0.32207727  0.42621002    -0.77700
O262        O  0.92060242  0.19690018  0.41779952    -0.76100
O263        O  0.94819941  0.14867406  0.45376805    -0.77900
O264        O  0.94757866  0.36925408  0.45691094    -0.78800
O265        O  0.96162482  0.26693994  0.37974865    -0.80200
O266        O  0.87139841  0.25156911  0.47070164    -0.80500
Eu267      Eu  0.93840273  0.25894718  0.44662585     2.39200
O268        O  0.99381608  0.22114767  0.44506318    -0.88000
O269        O  0.93813505  0.29608251  0.50267571    -0.91600
C270        C  0.85364743  0.24787350  0.50402472     1.03100
C271        C  0.99420276  0.27277078  0.36149594     1.02900
C272        C  0.92093985  0.35778937  0.43366415     1.02900
C273        C  0.92680530  0.16094215  0.42590411     1.00700
H274        H  0.99410743  0.31775426  0.42336637     0.30500
O275        O  0.99387300  0.29991955  0.44537476    -1.00400
H276        H  0.91442021  0.19967087  0.50197872     0.30500
O277        O  0.93669869  0.21701577  0.50174276    -1.02900
O278        O  0.11654825  0.25464423  0.46603602    -0.80100
O279        O  0.95913684  0.26014833  0.62531511    -0.79700
O280        O  0.04257897  0.37144604  0.45964213    -0.78100
O281        O  0.03573062  0.15123585  0.45207861    -0.81400
O282        O  0.95122216  0.14379328  0.54926212    -0.79300
O283        O  0.94525098  0.36505434  0.54494843    -0.77900
O284        O  0.07376614  0.31978560  0.57670432    -0.79500
O285        O  0.06650988  0.19323758  0.58008102    -0.81400
O286        O  0.03866871  0.36660066  0.54670773    -0.78100
O287        O  0.03655754  0.14739293  0.54396952    -0.80800
O288        O  0.07791625  0.32615592  0.42823605    -0.76500
O289        O  0.91099176  0.31655918  0.57749025    -0.76600
O290        O  0.92066445  0.18951573  0.58471412    -0.76200
O291        O  0.06725629  0.19976077  0.41661920    -0.79700
O292        O  0.11596243  0.25279330  0.53240048    -0.79100
O293        O  0.02515042  0.26101728  0.62379055    -0.77500
Eu294      Eu  0.04947831  0.26166242  0.44438812     2.39800
Eu295      Eu  0.93759707  0.25468590  0.55798718     2.39600
Eu296      Eu  0.99339743  0.33699921  0.50120698     2.38400
Eu297      Eu  0.99215728  0.17950584  0.50012591     2.39900
Eu298      Eu  0.04818233  0.25726262  0.55569299     2.39800
O299        O  0.99282230  0.21663181  0.55666027    -0.91900
O300        O  0.04903918  0.29881311  0.50058407    -0.90800
C301        C  0.13362774  0.25125336  0.49894775     1.03300
C302        C  0.99214579  0.26282972  0.64199699     1.02000
C303        C  0.07091425  0.36154361  0.43705564     1.01400
C304        C  0.05912920  0.16382322  0.42469628     1.03400
C305        C  0.92857612  0.15392620  0.57752249     1.02300
C306        C  0.91832702  0.35255471  0.56892280     1.01200
C307        C  0.06534554  0.35546854  0.56995149     1.01200
C308        C  0.05949002  0.15777307  0.57104420     1.03900
H309        H  0.99254408  0.31195580  0.57907828     0.31200
O310        O  0.99280565  0.29583184  0.55651594    -1.04000
H311        H  0.07010540  0.20324658  0.49883504     0.33300
O312        O  0.04791446  0.21973731  0.49943269    -1.06600
C313        C  0.79315694  0.50396592  0.69404312     0.87500
C314        C  0.82151969  0.47273893  0.68083998    -0.52800
C315        C  0.82318956  0.46764183  0.64147998     0.10400
C316        C  0.79760019  0.49573075  0.61878047     0.21300
C317        C  0.80838262  0.54028031  0.67152694    -0.53500
C318        C  0.81114169  0.53614646  0.63222119     0.10500
C319        C  0.75472211  0.49323641  0.67578782    -0.53000
C320        C  0.75662907  0.48829166  0.63674256     0.11100
H321        H  0.83973981  0.45710338  0.70080131     0.15600
H322        H  0.79876005  0.49227492  0.58685585     0.01300
H323        H  0.82163266  0.56501725  0.68532245     0.15900
H324        H  0.72785199  0.49019144  0.69270921     0.15700
C325        C  0.18617842  0.51398748  0.69482908     0.87500
C326        C  0.16361544  0.54838821  0.67808395    -0.52800
C327        C  0.15735754  0.54652550  0.63925285     0.10400
C328        C  0.17359820  0.51015435  0.62019928     0.21300
C329        C  0.16120466  0.47848541  0.68339621    -0.53500
C330        C  0.15483975  0.47623972  0.64424187     0.10500
C331        C  0.22287273  0.51188509  0.66923339    -0.53000
C332        C  0.21648561  0.50908299  0.63048605     0.11100
H333        H  0.15021667  0.57070611  0.69496580     0.15600
H334        H  0.16927081  0.50889716  0.58840001     0.01300
H335        H  0.14898974  0.45761874  0.70457238     0.15900
H336        H  0.25169936  0.51055820  0.68111712     0.15700
C337        C  0.79654999  0.01349813  0.30164512     0.87500
C338        C  0.80721773  0.97952716  0.32911065    -0.52800
C339        C  0.84594678  0.97758026  0.33654988     0.10400
C340        C  0.87037870  0.01048686  0.31650433     0.21300
C341        C  0.81261764  0.04926635  0.32284821    -0.53500
C342        C  0.85122409  0.04777850  0.33024161     0.10500
C343        C  0.82285000  0.00934526  0.26566114    -0.53000
C344        C  0.86113278  0.00743962  0.27327253     0.11100
H345        H  0.78590445  0.95930964  0.34205109     0.15600
H346        H  0.90186905  0.00935564  0.32189193     0.01300
H347        H  0.79509403  0.07220784  0.33431947     0.15900
H348        H  0.81191102  0.00701545  0.23640547     0.15700
C349        C  0.79225874  0.00087464  0.69989395     0.87500
C350        C  0.81238440  0.03740999  0.68200759    -0.52800
C351        C  0.85160710  0.03482739  0.67699926     0.10400
C352        C  0.86719580  0.99527875  0.69106848     0.21300
C353        C  0.80478243  0.96895151  0.67166452    -0.53500
C354        C  0.84406391  0.96586387  0.66759637     0.10500
C355        C  0.81307598  0.99216414  0.73749427    -0.53000
C356        C  0.85192005  0.98843903  0.73342456     0.11100
H357        H  0.79651397  0.06166900  0.67035231     0.15600
H358        H  0.89902777  0.99269357  0.68741584     0.01300
H359        H  0.78481085  0.95085517  0.65584735     0.15900
H360        H  0.79793046  0.98927382  0.76549215     0.15700
C361        C  0.79018069  0.50478116  0.30708140     0.87500
C362        C  0.81867617  0.53772878  0.31770796    -0.52800
C363        C  0.82665298  0.53899079  0.35650390     0.10400
C364        C  0.80628428  0.50674879  0.38116634     0.21300
C365        C  0.81033644  0.46818362  0.32300624    -0.53500
C366        C  0.81932068  0.46930930  0.36166401     0.10500
C367        C  0.75494743  0.50987296  0.33398035    -0.53000
C368        C  0.76320739  0.51112465  0.37238533     0.11100
H369        H  0.83184252  0.55791908  0.29642082     0.15600
H370        H  0.81237871  0.50822381  0.41263691     0.01300
H371        H  0.82013510  0.44492642  0.30493619     0.15900
H372        H  0.72573930  0.51290943  0.32342923     0.15700
C373        C  0.18523812  0.51666853  0.30280053     0.87500
C374        C  0.16962235  0.47996055  0.32437035    -0.52800
C375        C  0.16808981  0.48257604  0.36397791     0.10400
C376        C  0.18262591  0.52225890  0.37849932     0.21300
C377        C  0.15804907  0.54816048  0.31764283    -0.53500
C378        C  0.15737569  0.55146569  0.35701104     0.10500
C379        C  0.22436088  0.52556948  0.32064341    -0.53000
C380        C  0.22349099  0.52872479  0.35993924     0.11100
H381        H  0.15804086  0.45502437  0.30944602     0.15600
H382        H  0.18132816  0.52490721  0.41061883     0.01300
H383        H  0.13887996  0.56498193  0.29981139     0.15900
H384        H  0.25105208  0.52788876  0.30334451     0.15700
C385        C  0.19230095  0.01546769  0.30985194     0.87500
C386        C  0.17582957  0.04847144  0.33446561    -0.52800
C387        C  0.13660573  0.05092509  0.33338126     0.10400
C388        C  0.11681418  0.02050817  0.30851854     0.21300
C389        C  0.17028101  0.97943274  0.32619953    -0.53500
C390        C  0.13088595  0.98166911  0.32568572     0.10500
C391        C  0.17610558  0.02262565  0.26908358    -0.53000
C392        C  0.13683843  0.02570831  0.26792939     0.11100
H393        H  0.19182415  0.06750846  0.35293305     0.15600
H394        H  0.08487185  0.02311021  0.30857219     0.01300
H395        H  0.18488355  0.95502633  0.33934998     0.15900
H396        H  0.19455131  0.02452687  0.24309611     0.15700
C397        C  0.18466386  0.00448580  0.69542132     0.87500
C398        C  0.16898960  0.96703384  0.67697198    -0.52800
C399        C  0.13032910  0.96731224  0.66974970     0.10400
C400        C  0.11056033  0.00502962  0.68105445     0.21300
C401        C  0.17305464  0.03620121  0.66578569    -0.53500
C402        C  0.13418485  0.03691243  0.65899119     0.10500
C403        C  0.15853552  0.01078995  0.73125160    -0.53000
C404        C  0.12005844  0.01134731  0.72372815     0.11100
H405        H  0.18712276  0.94402426  0.66653902     0.15600
H406        H  0.07903091  0.00526035  0.67553497     0.01300
H407        H  0.19347202  0.05625965  0.65122156     0.15900
H408        H  0.16962723  0.01504704  0.76019125     0.15700
O409        O  0.73707944  0.63222458  0.96375600    -0.79200
O410        O  0.74294906  0.47741005  0.12448787    -0.80700
O411        O  0.67479445  0.58608112  0.07850218    -0.77700
O412        O  0.80195785  0.59049389  0.07474963    -0.76100
O413        O  0.84902489  0.55340997  0.04692550    -0.77900
O414        O  0.62821064  0.55806476  0.04117301    -0.78800
O415        O  0.74508710  0.54342846  0.12406807    -0.80200
O416        O  0.73486321  0.63252905  0.03009012    -0.80500
Eu417      Eu  0.73873115  0.56542157  0.05548765     2.39200
O418        O  0.77601253  0.50931921  0.05605529    -0.88000
O419        O  0.70217717  0.56524062  0.99879104    -0.91600
C420        C  0.73384400  0.64967731  0.99634529     1.03100
C421        C  0.74692320  0.51006008  0.14174402     1.02900
C422        C  0.63942465  0.58052611  0.06836325     1.02900
C423        C  0.83742710  0.58099537  0.06882933     1.00700
H424        H  0.68079410  0.51146500  0.07998431     0.30500
O425        O  0.69707586  0.51081615  0.05684861    -1.00400
H426        H  0.79581492  0.58803418  0.00050485     0.30500
O427        O  0.77980884  0.56483594  0.00025678    -1.02900
O428        O  0.72230577  0.38844231  0.03440201    -0.80100
O429        O  0.75416816  0.54292353  0.87685092    -0.79700
O430        O  0.62516085  0.46849043  0.04884501    -0.78100
O431        O  0.84425199  0.46155390  0.04750070    -0.81400
O432        O  0.85356548  0.55973955  0.96033675    -0.79300
O433        O  0.63275718  0.55489277  0.95171025    -0.77900
O434        O  0.67565713  0.43643588  0.91981359    -0.79500
O435        O  0.80170050  0.42768304  0.92734281    -0.81400
O436        O  0.62842393  0.46644098  0.95454539    -0.78100
O437        O  0.84923433  0.46197364  0.95722805    -0.80800
O438        O  0.66971683  0.43798460  0.08626798    -0.76500
O439        O  0.68181517  0.58544243  0.91648575    -0.76600
O440        O  0.80822335  0.59391395  0.92767015    -0.76200
O441        O  0.79508355  0.42667634  0.07816703    -0.79700
O442        O  0.72704985  0.38957526  0.96819711    -0.79100
O443        O  0.74953537  0.47702832  0.87838543    -0.77500
Eu444      Eu  0.73419344  0.45467201  0.05777398     2.39800
Eu445      Eu  0.74360261  0.56543673  0.94348928     2.39600
Eu446      Eu  0.66022058  0.51078680  0.99982460     2.38400
Eu447      Eu  0.81811728  0.50914490  0.00114396     2.39900
Eu448      Eu  0.73904567  0.45562384  0.94583800     2.39800
O449        O  0.78153535  0.50981378  0.94433699    -0.91900
O450        O  0.69760130  0.45514050  0.00111949    -0.90800
C451        C  0.72074097  0.37193638  0.00106079     1.03300
C452        C  0.75554864  0.50974952  0.86036600     1.02000
C453        C  0.63454117  0.44608525  0.07768996     1.01400
C454        C  0.83126677  0.43415582  0.07082645     1.03400
C455        C  0.84357949  0.58786188  0.93723274     1.02300
C456        C  0.64565366  0.57794074  0.92413868     1.01200
C457        C  0.63972756  0.44327283  0.92774482     1.01200
C458        C  0.83766786  0.43489832  0.93438728     1.03900
H459        H  0.68694487  0.51107159  0.92031184     0.31200
O460        O  0.70154455  0.51108551  0.94392465    -1.04000
H461        H  0.79022962  0.43072205  0.00276922     0.33300
O462        O  0.77577632  0.45435934  0.00237906    -1.06600
O463        O  0.25367590  0.62975223  0.96473919    -0.79200
O464        O  0.22513673  0.47298403  0.12206506    -0.80700
O465        O  0.17554309  0.58888464  0.06989360    -0.77700
O466        O  0.30157405  0.57811010  0.08205029    -0.76100
O467        O  0.34896148  0.54726727  0.04832880    -0.77900
O468        O  0.12817939  0.55494352  0.03940958    -0.78800
O469        O  0.23040787  0.53908154  0.12013793    -0.80200
O470        O  0.24932735  0.62755890  0.03097682    -0.80500
Eu471      Eu  0.23890609  0.56104193  0.05328025     2.39200
O472        O  0.27568054  0.50501538  0.05452315    -0.88000
O473        O  0.20175425  0.56287688  0.99737381    -0.91600
C474        C  0.25523365  0.64567849  0.99825547     1.03100
C475        C  0.22437890  0.50644968  0.13816408     1.02900
C476        C  0.13968855  0.58214192  0.06185775     1.02900
C477        C  0.33744034  0.56994647  0.07553890     1.00700
H478        H  0.17867409  0.50668024  0.07594380     0.30500
O479        O  0.19658498  0.50655229  0.05400003    -1.00400
H480        H  0.29950968  0.58347801  0.99911238     0.30500
O481        O  0.28144813  0.56179436  0.99884610    -1.02900
O482        O  0.24140858  0.38391988  0.03230741    -0.80100
O483        O  0.23670590  0.54410766  0.87543455    -0.79700
O484        O  0.12536696  0.45856752  0.03892359    -0.78100
O485        O  0.34568833  0.46270635  0.04908558    -0.81400
O486        O  0.35361817  0.54784171  0.95246700    -0.79300
O487        O  0.13285843  0.55593357  0.95282056    -0.77900
O488        O  0.17530627  0.42722343  0.92435198    -0.79500
O489        O  0.30068366  0.43234676  0.91798316    -0.81400
O490        O  0.12845125  0.46457585  0.95189403    -0.78100
O491        O  0.34784582  0.45914810  0.95540174    -0.80800
O492        O  0.16978059  0.42175776  0.07036001    -0.76500
O493        O  0.18237519  0.59179853  0.92374892    -0.76600
O494        O  0.30872720  0.57842521  0.91552725    -0.76200
O495        O  0.29596854  0.43310200  0.08396881    -0.79700
O496        O  0.24274259  0.38431378  0.96593413    -0.79100
O497        O  0.23335353  0.47799801  0.87566048    -0.77500
Eu498      Eu  0.23423978  0.45042450  0.05495376     2.39800
Eu499      Eu  0.24373195  0.56329914  0.94278273     2.39600
Eu500      Eu  0.16012328  0.50795920  0.99751082     2.38400
Eu501      Eu  0.31779598  0.50545498  0.99992042     2.39900
Eu502      Eu  0.23843189  0.45255120  0.94333832     2.39800
O503        O  0.28052308  0.50691437  0.94333806    -0.91900
O504        O  0.19730154  0.45179467  0.99853463    -0.90800
C505        C  0.24457291  0.36674281  0.99945100     1.03300
C506        C  0.23211026  0.51159697  0.85827492     1.02000
C507        C  0.13472696  0.42989342  0.06142225     1.01400
C508        C  0.33228459  0.44056761  0.07717689     1.03400
C509        C  0.34389177  0.57016630  0.92381990     1.02300
C510        C  0.14614716  0.58383264  0.93040204     1.01200
C511        C  0.13989266  0.43694158  0.93009628     1.01200
C512        C  0.33610241  0.43741760  0.92771606     1.03900
H513        H  0.18521198  0.50973237  0.92037483     0.31200
O514        O  0.20150103  0.50883477  0.94276911    -1.04000
H515        H  0.29208245  0.42873762  0.00034109     0.33300
O516        O  0.27594887  0.45119933  0.99980421    -1.06600
C517        C  0.99937828  0.70566149  0.80266668     0.87500
C518        C  0.03194102  0.68092945  0.81931690    -0.52800
C519        C  0.03368585  0.68129840  0.85888879     0.10400
C520        C  0.00232510  0.70557651  0.87885322     0.21300
C521        C  0.96288578  0.68876489  0.82358815    -0.53500
C522        C  0.96379544  0.68824899  0.86343514     0.10500
C523        C  0.00608628  0.74541748  0.81968234    -0.53000
C524        C  0.00728056  0.74621828  0.85907410     0.11100
H525        H  0.05082282  0.66250658  0.80291586     0.15600
H526        H  0.00388571  0.70585564  0.91103959     0.01300
H527        H  0.93932253  0.67581083  0.80768599     0.15900
H528        H  0.00963792  0.77148465  0.80148575     0.15700
C529        C  0.99075617  0.31115089  0.80456722     0.87500
C530        C  0.95397042  0.33091224  0.82019028    -0.52800
C531        C  0.95414860  0.33843704  0.85925573     0.10400
C532        C  0.99145349  0.32491937  0.87903491     0.21300
C533        C  0.02338324  0.33949469  0.81640161    -0.53500
C534        C  0.02400534  0.34586808  0.85541454     0.10500
C535        C  0.99536984  0.27514132  0.83051897    -0.53000
C536        C  0.99623390  0.28216467  0.86918093     0.11100
H537        H  0.93155704  0.34134393  0.80130576     0.15600
H538        H  0.99235728  0.33000069  0.91076052     0.01300
H539        H  0.04399656  0.35365849  0.79623247     0.15900
H540        H  0.99907433  0.24634117  0.81903252     0.15700
C541        C  0.49331519  0.70738424  0.80870356     0.87500
C542        C  0.45790556  0.68520950  0.82596600    -0.52800
C543        C  0.46073607  0.64593730  0.82512695     0.10400
C544        C  0.49899681  0.63203586  0.80625250     0.21300
C545        C  0.52670813  0.69106971  0.83249896    -0.53500
C546        C  0.53048515  0.65180970  0.83042258     0.10500
C547        C  0.49953229  0.69191036  0.76796455    -0.53000
C548        C  0.50235231  0.65286847  0.76606740     0.11100
H549        H  0.43404802  0.69925673  0.84070891     0.15600
H550        H  0.50097196  0.60010064  0.80457017     0.01300
H551        H  0.54369386  0.70774346  0.85245825     0.15900
H552        H  0.50192819  0.71082622  0.74227172     0.15700
C553        C  0.48741763  0.70212999  0.19642038     0.87500
C554        C  0.52016355  0.69135180  0.16765603    -0.52800
C555        C  0.52246651  0.65250548  0.16156091     0.10400
C556        C  0.49166280  0.62771305  0.18400139     0.21300
C557        C  0.45088063  0.68399066  0.17791627    -0.53500
C558        C  0.45322122  0.64506875  0.17131259     0.10500
C559        C  0.49386027  0.67712260  0.23301688    -0.53000
C560        C  0.49640043  0.63847704  0.22680383     0.11100
H561        H  0.54016865  0.71241766  0.15390740     0.15600
H562        H  0.49377430  0.59616078  0.17891615     0.01300
H563        H  0.42697235  0.70012892  0.16669226     0.15900
H564        H  0.49655329  0.68924422  0.26174839     0.15700
C565        C  0.98190486  0.31491525  0.19790032     0.87500
C566        C  0.01655857  0.33459123  0.17640456    -0.52800
C567        C  0.01460579  0.33423985  0.13691735     0.10400
C568        C  0.97772679  0.31354838  0.12199520     0.21300
C569        C  0.94706025  0.33654724  0.18151689    -0.53500
C570        C  0.94433724  0.33534464  0.14190569     0.10500
C571        C  0.97826366  0.27454867  0.18150045    -0.53000
C572        C  0.97648790  0.27294210  0.14217983     0.11100
H573        H  0.03979490  0.34946023  0.19119569     0.15600
H574        H  0.97636252  0.31274498  0.08982543     0.01300
H575        H  0.92818907  0.35473352  0.19825262     0.15900
H576        H  0.97591424  0.24885655  0.20033091     0.15700
C577        C  0.99102010  0.70498395  0.19277301     0.87500
C578        C  0.95639428  0.67882289  0.18170303    -0.52800
C579        C  0.95393132  0.67279508  0.14264595     0.10400
C580        C  0.98664079  0.69249605  0.11800045     0.21300
C581        C  0.02618942  0.68386111  0.17503090    -0.53500
C582        C  0.02391615  0.67758002  0.13601972     0.10500
C583        C  0.98737172  0.74172670  0.16729042    -0.53000
C584        C  0.98479551  0.73532302  0.12846660     0.11100
H585        H  0.93537739  0.66664107  0.20276637     0.15600
H586        H  0.98469223  0.68733463  0.08632340     0.01300
H587        H  0.04936291  0.67132036  0.19127745     0.15900
H588        H  0.98594919  0.77056888  0.17918978     0.15700
C589        C  0.48869883  0.31006132  0.80811978     0.87500
C590        C  0.52315980  0.32645439  0.83077669    -0.52800
C591        C  0.52241942  0.36550940  0.83619211     0.10400
C592        C  0.48635476  0.38471508  0.81928071     0.21300
C593        C  0.45353987  0.32251678  0.83277677    -0.53500
C594        C  0.45225510  0.36148965  0.83797700     0.10500
C595        C  0.48735114  0.33481971  0.77064974    -0.53000
C596        C  0.48555688  0.37365260  0.77637700     0.11100
H597        H  0.54430726  0.30883750  0.84515774     0.15600
H598        H  0.48487803  0.41641550  0.82372667     0.01300
H599        H  0.43180536  0.30252259  0.84537919     0.15900
H600        H  0.48612327  0.32245188  0.74190855     0.15700
C601        C  0.48145914  0.30786581  0.19233044     0.87500
C602        C  0.44658194  0.32539592  0.17167580    -0.52800
C603        C  0.44487141  0.36493654  0.17346235     0.10400
C604        C  0.47894618  0.38353428  0.19520252     0.21300
C605        C  0.51616636  0.32902229  0.17206560    -0.53500
C606        C  0.51510378  0.36842279  0.17339297     0.10500
C607        C  0.47925931  0.32354522  0.23335954    -0.53000
C608        C  0.47815256  0.36273182  0.23561638     0.11100
H609        H  0.42702824  0.30925594  0.15367614     0.15600
H610        H  0.47820495  0.41557430  0.19669968     0.01300
H611        H  0.53871380  0.31417002  0.15613108     0.15900
H612        H  0.47776293  0.30453020  0.25900197     0.15700
O613        O  0.56036466  0.41515168  0.44790579    -0.79200
O614        O  0.45187794  0.49047836  0.62483209    -0.80700
O615        O  0.58172912  0.45166591  0.56946352    -0.77700
O616        O  0.47293428  0.38549049  0.54457674    -0.76100
O617        O  0.42397302  0.39736769  0.50229102    -0.77900
O618        O  0.59994963  0.51530667  0.56033036    -0.78800
O619        O  0.49416004  0.44148631  0.61303812    -0.80200
O620        O  0.54894454  0.39546514  0.51112291    -0.80500
Eu621      Eu  0.51424078  0.44505107  0.54497693     2.39200
O622        O  0.44990825  0.46666015  0.54273803    -0.88000
O623        O  0.55364776  0.48545788  0.50448468    -0.91600
C624        C  0.56108004  0.38957545  0.47621980     1.03100
C625        C  0.47143717  0.46052739  0.63533124     1.02900
C626        C  0.60667567  0.48020271  0.57069159     1.02900
C627        C  0.44285196  0.37523020  0.52532104     1.00700
H628        H  0.52193135  0.50949014  0.59260438     0.30500
O629        O  0.51206647  0.50909027  0.56658411    -1.00400
H630        H  0.49128383  0.41617016  0.47155300     0.30500
O631        O  0.49199221  0.44228203  0.48087510    -1.02900
O632        O  0.41791175  0.59713506  0.55559606    -0.80100
O633        O  0.52789484  0.52103784  0.37911163    -0.79700
O634        O  0.54431861  0.58105162  0.59096369    -0.78100
O635        O  0.36811060  0.46976917  0.51698717    -0.81400
O636        O  0.43911674  0.43217449  0.41255521    -0.79300
O637        O  0.61120853  0.54647944  0.48516110    -0.77900
O638        O  0.50512332  0.62895735  0.46261835    -0.79500
O639        O  0.39862972  0.55814402  0.43074904    -0.81400
O640        O  0.55529861  0.61712929  0.50342436    -0.78100
O641        O  0.38127390  0.49416783  0.43890218    -0.80800
O642        O  0.48136433  0.56990388  0.61083861    -0.76500
O643        O  0.59979769  0.50171667  0.43832553    -0.76600
O644        O  0.50250461  0.44204918  0.39354430    -0.76200
O645        O  0.38012887  0.51053983  0.56735678    -0.79700
O646        O  0.42838711  0.61518801  0.49172165    -0.79100
O647        O  0.48591338  0.57037364  0.39032111    -0.77500
Eu648      Eu  0.44796887  0.53123611  0.56425564     2.39800
Eu649      Eu  0.53241798  0.48181444  0.44051066     2.39600
Eu650      Eu  0.55116170  0.54977182  0.52577377     2.38400
Eu651      Eu  0.42885432  0.46381910  0.47784300     2.39900
Eu652      Eu  0.46551008  0.56771413  0.45845674     2.39800
O653        O  0.46852116  0.50370757  0.43709412    -0.91900
O654        O  0.48732127  0.57080134  0.52277009    -0.90800
C655        C  0.41458700  0.62091179  0.52597907     1.03300
C656        C  0.50847010  0.55091526  0.36819703     1.02000
C657        C  0.51547886  0.58418549  0.61550736     1.01400
C658        C  0.35767534  0.48906476  0.54715725     1.03400
C659        C  0.46840484  0.42827692  0.38850965     1.02300
C660        C  0.62190240  0.52510355  0.45658883     1.01200
C661        C  0.53572574  0.63946311  0.48119482     1.01200
C662        C  0.37432371  0.52899755  0.42805021     1.03900
H663        H  0.54641475  0.56303392  0.44410311     0.31200
O664        O  0.53001394  0.54669886  0.46092786    -1.04000
H665        H  0.40098825  0.53745767  0.50000483     0.33300
O666        O  0.42694871  0.52785117  0.50007361    -1.06600
O667        O  0.08448420  0.93876872  0.05333401    -0.79200
O668        O  0.00903655  0.04884333  0.87681924    -0.80700
O669        O  0.04951238  0.92218889  0.92664742    -0.77700
O670        O  0.11674991  0.02763291  0.96498159    -0.76100
O671        O  0.10116192  0.07564963  0.00706401    -0.77900
O672        O  0.98634135  0.90269900  0.93634433    -0.78800
O673        O  0.05967315  0.00888752  0.88963388    -0.80200
O674        O  0.10437104  0.95018410  0.99008561    -0.80500
Eu675      Eu  0.05657574  0.98747817  0.95762555     2.39200
O676        O  0.03350942  0.05143987  0.96022822    -0.88000
O677        O  0.01657035  0.94579953  0.99656938    -0.91600
C678        C  0.11003816  0.93802666  0.02494090     1.03100
C679        C  0.03926399  0.02967451  0.86662483     1.02900
C680        C  0.02060595  0.89797067  0.92285370     1.02900
C681        C  0.12551722  0.05675774  0.98647060     1.00700
H682        H  0.99393510  0.97971317  0.90945667     0.30500
O683        O  0.99332624  0.98937176  0.93551589    -1.00400
H684        H  0.08178681  0.00843679  0.03288096     0.30500
O685        O  0.05613293  0.00802014  0.02249007    -1.02900
O686        O  0.90148050  0.07789190  0.94466949    -0.80100
O687        O  0.97673937  0.97048441  0.12202922    -0.79700
O688        O  0.92536108  0.95508053  0.90708112    -0.78100
O689        O  0.03093529  0.13156750  0.98557109    -0.81400
O690        O  0.06200657  0.06240968  0.09258456    -0.79300
O691        O  0.95467699  0.88725051  0.01210937    -0.77900
O692        O  0.87038528  0.99073924  0.03492397    -0.79500
O693        O  0.93569908  0.09723708  0.07223434    -0.81400
O694        O  0.88539126  0.94443805  0.99085179    -0.78100
O695        O  0.99905011  0.11695620  0.06396698    -0.80800
O696        O  0.93433467  0.01857870  0.88830038    -0.76500
O697        O  0.99602468  0.89773014  0.06217817    -0.76600
O698        O  0.05366478  0.99846255  0.11025634    -0.76200
O699        O  0.99090589  0.11990669  0.93458737    -0.79700
O700        O  0.88140796  0.06672432  0.00782812    -0.79100
O701        O  0.92725251  0.01191652  0.10940267    -0.77500
Eu702      Eu  0.96922957  0.05251723  0.93760963     2.39800
Eu703      Eu  0.01726463  0.96563951  0.06132066     2.39600
Eu704      Eu  0.95292315  0.94857806  0.97396008     2.38400
Eu705      Eu  0.03342969  0.07110074  0.02570303     2.39900
Eu706      Eu  0.93018251  0.03184358  0.04155291     2.39800
O707        O  0.99367278  0.02908109  0.06389397    -0.91900
O708        O  0.92954667  0.01140666  0.97689910    -0.90800
C709        C  0.87574300  0.07853391  0.97285436     1.03300
C710        C  0.94684106  0.99029763  0.13222098     1.02000
C711        C  0.92342151  0.98355977  0.88190582     1.01400
C712        C  0.01272894  0.14202087  0.95473019     1.03400
C713        C  0.06500345  0.03328154  0.11701567     1.02300
C714        C  0.97356398  0.87605741  0.04216510     1.01200
C715        C  0.86141816  0.96223808  0.01267145     1.01200
C716        C  0.96429831  0.12166707  0.07651196     1.03900
H717        H  0.93623523  0.95066780  0.05524942     0.31200
O718        O  0.95287477  0.96770240  0.03940496    -1.04000
H719        H  0.95991796  0.09904709  0.00223545     0.33300
O720        O  0.96989808  0.07314784  0.00206772    -1.06600
C721        C  0.44230045  0.42202151  0.32132441     0.24600
C722        C  0.46493511  0.40740646  0.35158520    -0.23500
C723        C  0.49307552  0.37984092  0.34274317     0.19500
C724        C  0.49823276  0.36688241  0.30488149     0.24500
C725        C  0.47534500  0.38099434  0.27450776    -0.23500
C726        C  0.44757324  0.40905609  0.28300324     0.19400
F727        F  0.42550920  0.42383234  0.25435437    -0.13400
F728        F  0.41678200  0.45048404  0.32845647    -0.15800
F729        F  0.52669315  0.34124968  0.29765944    -0.15800
F730        F  0.51717188  0.36687427  0.37065139    -0.13400
C731        C  0.50396870  0.43197022  0.73496617     0.24600
C732        C  0.47790125  0.40128198  0.74414004    -0.23500
C733        C  0.44582705  0.39499772  0.72041983     0.19500
C734        C  0.44144370  0.41728134  0.68643177     0.24500
C735        C  0.46895749  0.44621051  0.67581493    -0.23500
C736        C  0.49980834  0.45400152  0.70065817     0.19400
F737        F  0.52746995  0.48095773  0.69011660    -0.13400
F738        F  0.53505878  0.43854410  0.75751630    -0.15800
F739        F  0.41210997  0.40858225  0.66230333    -0.15800
F740        F  0.41961842  0.36614721  0.72939398    -0.13400
C741        C  0.94555914  0.79107958  0.10632554     0.24600
C742        C  0.97741322  0.76707783  0.10021495    -0.23500
C743        C  0.00370581  0.77580481  0.06936897     0.19500
C744        C  0.00008868  0.81008100  0.04727603     0.24500
C745        C  0.96997656  0.83555279  0.05560272    -0.23500
C746        C  0.94182554  0.82509012  0.08407624     0.19400
F747        F  0.91245367  0.84931370  0.09235138    -0.13400
F748        F  0.91909289  0.78245050  0.13516874    -0.15800
F749        F  0.02752141  0.81992129  0.01971020    -0.15800
F750        F  0.03460799  0.75299671  0.06283906    -0.13400
C751        C  0.94500102  0.22720968  0.09473932     0.24600
C752        C  0.97228835  0.23444116  0.12368715    -0.23500
C753        C  0.99300807  0.20304591  0.13896501     0.19500
C754        C  0.98600066  0.16555334  0.12669067     0.24500
C755        C  0.95954281  0.15816167  0.09733892    -0.23500
C756        C  0.93884502  0.18924422  0.08143315     0.19400
F757        F  0.91417858  0.18315909  0.05193116    -0.13400
F758        F  0.92431244  0.25664860  0.07951160    -0.15800
F759        F  0.00722083  0.13635647  0.14176419    -0.15800
F760        F  0.02120700  0.20871404  0.16525294    -0.13400
C761        C  0.47862908  0.57909241  0.26721052     0.24600
C762        C  0.50421020  0.61049064  0.25897959    -0.23500
C763        C  0.53514858  0.61739901  0.28408350     0.19500
C764        C  0.53912388  0.59462526  0.31789070     0.24500
C765        C  0.51178909  0.56525569  0.32763394    -0.23500
C766        C  0.48198258  0.55705052  0.30169952     0.19400
F767        F  0.45452663  0.52955885  0.31119362    -0.13400
F768        F  0.44844325  0.57194205  0.24365143    -0.15800
F769        F  0.56796624  0.60311197  0.34268084    -0.15800
F770        F  0.56057854  0.64730819  0.27672127    -0.13400
C771        C  0.48384020  0.64619104  0.69714390     0.24600
C772        C  0.50757341  0.63452262  0.72766473    -0.23500
C773        C  0.53787403  0.60893647  0.71978550     0.19500
C774        C  0.54362786  0.59472739  0.68192977     0.24500
C775        C  0.51906830  0.60608040  0.65178156    -0.23500
C776        C  0.48980399  0.63246571  0.65989798     0.19400
F777        F  0.46517929  0.64321673  0.63178815    -0.13400
F778        F  0.45375012  0.67010716  0.70363831    -0.15800
F779        F  0.57174656  0.56868230  0.67524862    -0.15800
F780        F  0.56185106  0.59796113  0.74854026    -0.13400
C781        C  0.97872803  0.24074417  0.92762822     0.24600
C782        C  0.00536493  0.25124453  0.89771976    -0.23500
C783        C  0.03856118  0.22887876  0.89196757     0.19500
C784        C  0.04315088  0.19449884  0.91345298     0.24500
C785        C  0.01496764  0.18254529  0.94135081    -0.23500
C786        C  0.98333764  0.20632840  0.94910127     0.19400
F787        F  0.95511484  0.19432327  0.97498944    -0.13400
F788        F  0.94646056  0.26178383  0.93351850    -0.15800
F789        F  0.07319238  0.17124980  0.90467923    -0.15800
F790        F  0.06542802  0.23931553  0.86403730    -0.13400
C791        C  0.99428517  0.85231235  0.87625268     0.24600
C792        C  0.02412756  0.86144689  0.90185608    -0.23500
C793        C  0.04795807  0.83166820  0.91520607     0.19500
C794        C  0.04162889  0.79327045  0.90327974     0.24500
C795        C  0.01138593  0.78441097  0.87791507    -0.23500
C796        C  0.98765569  0.81443186  0.86502050     0.19400
F797        F  0.95732951  0.80687938  0.84168568    -0.13400
F798        F  0.96964908  0.88002380  0.86404505    -0.15800
F799        F  0.06485298  0.76501700  0.91658040    -0.15800
F800        F  0.07576580  0.83937901  0.94134458    -0.13400
C801        C  0.07733056  0.35240251  0.90205289     0.24600
C802        C  0.05410663  0.36944220  0.87372487    -0.23500
C803        C  0.05920859  0.40892307  0.86384207     0.19500
C804        C  0.08695672  0.43128626  0.88265542     0.24500
C805        C  0.11028542  0.41407237  0.91077167    -0.23500
C806        C  0.10554737  0.37451967  0.92020570     0.19400
F807        F  0.12777434  0.35756604  0.94756508    -0.13400
F808        F  0.07309580  0.31419458  0.91168073    -0.15800
F809        F  0.09154630  0.46949392  0.87308824    -0.15800
F810        F  0.03675939  0.42587843  0.83670998    -0.13400
C811        C  0.07804706  0.34106490  0.10094929     0.24600
C812        C  0.04299519  0.35738215  0.11270804    -0.23500
C813        C  0.03822426  0.39750606  0.10749591     0.19500
C814        C  0.06734143  0.42065083  0.08925952     0.24500
C815        C  0.10294277  0.40462272  0.07824590    -0.23500
C816        C  0.10803298  0.36449451  0.08439667     0.19400
F817        F  0.14208029  0.34792053  0.07463384    -0.13400
F818        F  0.08382908  0.30268615  0.10726458    -0.15800
F819        F  0.06155935  0.45923939  0.08453366    -0.15800
F820        F  0.00628184  0.41474996  0.12215824    -0.13400
C821        C  0.04194803  0.62137800  0.09470555     0.24600
C822        C  0.05311613  0.65475362  0.11455317    -0.23500
C823        C  0.09255438  0.66513837  0.11555467     0.19500
C824        C  0.12047494  0.64231457  0.09755445     0.24500
C825        C  0.10971133  0.60754626  0.07935982    -0.23500
C826        C  0.06986231  0.59768485  0.07783638     0.19400
F827        F  0.05765209  0.56461856  0.06085287    -0.13400
F828        F  0.00402217  0.61067154  0.09305581    -0.15800
F829        F  0.15801299  0.65469110  0.09771221    -0.15800
F830        F  0.10406147  0.69778891  0.13371095    -0.13400
C831        C  0.12546225  0.64878309  0.90564063     0.24600
C832        C  0.11758183  0.60887934  0.91165878    -0.23500
C833        C  0.08159408  0.59333338  0.90065134     0.19500
C834        C  0.05384409  0.61732957  0.88458818     0.24500
C835        C  0.06144659  0.65717656  0.87959459    -0.23500
C836        C  0.09751060  0.67272042  0.88972242     0.19400
F837        F  0.10613120  0.71081451  0.88302312    -0.13400
F838        F  0.16000770  0.66473913  0.91553154    -0.15800
F839        F  0.01984569  0.60154632  0.87292348    -0.15800
F840        F  0.07377247  0.55469558  0.90418593    -0.13400
C841        C  0.36385336  0.41794492  0.86401515     0.24600
C842        C  0.36522947  0.41705048  0.90487078    -0.23500
C843        C  0.39423202  0.39623393  0.92348945     0.19500
C844        C  0.42210145  0.37727368  0.90145571     0.24500
C845        C  0.42157406  0.37954775  0.86076801    -0.23500
C846        C  0.39229280  0.39972934  0.84204014     0.19400
F847        F  0.39119122  0.40163869  0.80260826    -0.13400
F848        F  0.33549986  0.43720585  0.84546230    -0.15800
F849        F  0.45000947  0.35714170  0.91969338    -0.15800
F850        F  0.39492838  0.39346354  0.96290306    -0.13400
C851        C  0.39825780  0.60915123  0.83359872     0.24600
C852        C  0.43348199  0.62139502  0.84901652    -0.23500
C853        C  0.43936790  0.61663966  0.88916083     0.19500
C854        C  0.41075893  0.59897178  0.91340740     0.24500
C855        C  0.37510378  0.58716375  0.89812111    -0.23500
C856        C  0.36915608  0.59246460  0.85792599     0.19400
F857        F  0.33497488  0.58185246  0.84217496    -0.13400
F858        F  0.39141069  0.61504955  0.79523463    -0.15800
F859        F  0.41699665  0.59568995  0.95218108    -0.15800
F860        F  0.47186876  0.63131853  0.90528045    -0.13400
C861        C  0.40732439  0.58410586  0.09282332     0.24600
C862        C  0.36732924  0.58776502  0.10114688    -0.23500
C863        C  0.35635415  0.60858242  0.13450685     0.19500
C864        C  0.38429428  0.62594123  0.15784647     0.24500
C865        C  0.42388535  0.62351025  0.14845849    -0.23500
C866        C  0.43512403  0.60189166  0.11603783     0.19400
F867        F  0.47307730  0.59909639  0.10572470    -0.13400
F868        F  0.41988876  0.56392510  0.06171434    -0.15800
F869        F  0.37262522  0.64476794  0.19016920    -0.15800
F870        F  0.31852120  0.61217449  0.14498435    -0.13400
C871        C  0.39886164  0.43752162  0.10518840     0.24600
C872        C  0.36057453  0.42272016  0.10368132    -0.23500
C873        C  0.34958432  0.39095374  0.12823142     0.19500
C874        C  0.37660602  0.37332411  0.15205402     0.24500
C875        C  0.41524251  0.38699308  0.15209723    -0.23500
C876        C  0.42573637  0.42000406  0.12929813     0.19400
F877        F  0.46233811  0.43484853  0.12913764    -0.13400
F878        F  0.41056070  0.46913323  0.08345601    -0.15800
F879        F  0.36484325  0.34277404  0.17524576    -0.15800
F880        F  0.31284901  0.37619282  0.12875649    -0.13400
C881        C  0.57782841  0.40580552  0.16674627     0.24600
C882        C  0.54339234  0.39278962  0.15015049    -0.23500
C883        C  0.53870139  0.39803145  0.10987103     0.19500
C884        C  0.56752217  0.41691310  0.08671591     0.24500
C885        C  0.60280887  0.42864483  0.10289892    -0.23500
C886        C  0.60767702  0.42273467  0.14326990     0.19400
F887        F  0.64139993  0.43312327  0.16005776    -0.13400
F888        F  0.58309755  0.40067662  0.20550639    -0.15800
F889        F  0.56175684  0.42169295  0.04799856    -0.15800
F890        F  0.50683951  0.38333567  0.09260182    -0.13400
C891        C  0.60447266  0.58934508  0.13074723     0.24600
C892        C  0.60945364  0.59963110  0.09127850    -0.23500
C893        C  0.58560698  0.62754006  0.07443251     0.19500
C894        C  0.55741323  0.64551582  0.09731365     0.24500
C895        C  0.55269422  0.63521416  0.13699380    -0.23500
C896        C  0.57618399  0.60685950  0.15338026     0.19400
F897        F  0.57204725  0.59647628  0.19156981    -0.13400
F898        F  0.62656798  0.56162277  0.14716017    -0.15800
F899        F  0.53406564  0.67198256  0.08061379    -0.15800
F900        F  0.58999205  0.63759831  0.03615726    -0.13400
C901        C  0.57991490  0.57859514  0.89504612     0.24600
C902        C  0.61675930  0.59615719  0.89893907    -0.23500
C903        C  0.62580596  0.63059446  0.87774243     0.19500
C904        C  0.59810568  0.64790299  0.85460151     0.24500
C905        C  0.56077425  0.63113257  0.85197397    -0.23500
C906        C  0.55237823  0.59570780  0.87156501     0.19400
F907        F  0.51723552  0.57786610  0.86911461    -0.13400
F908        F  0.57048659  0.54441873  0.91353627    -0.15800
F909        F  0.60807366  0.68097493  0.83435226    -0.15800
F910        F  0.66125896  0.64801482  0.87974765    -0.13400
C911        C  0.56980992  0.43182721  0.90916960     0.24600
C912        C  0.60948442  0.42340056  0.90426283    -0.23500
C913        C  0.61984421  0.39574424  0.87638858     0.19500
C914        C  0.59166079  0.37748986  0.85419018     0.24500
C915        C  0.55225077  0.38595989  0.85926838    -0.23500
C916        C  0.54163804  0.41301107  0.88728632     0.19400
F917        F  0.50380339  0.42036398  0.89466220    -0.13400
F918        F  0.55787597  0.45831327  0.93518552    -0.15800
F919        F  0.60315726  0.35175848  0.82717965    -0.15800
F920        F  0.65733170  0.38605434  0.87030800    -0.13400
C921        C  0.84928254  0.38331235  0.12061961     0.24600
C922        C  0.85993076  0.40838650  0.08903625    -0.23500
C923        C  0.89791899  0.40686557  0.07338553     0.19500
C924        C  0.92445121  0.38115571  0.08878295     0.24500
C925        C  0.91431624  0.35734473  0.12116307    -0.23500
C926        C  0.87610705  0.35787869  0.13623264     0.19400
F927        F  0.86462597  0.33355770  0.16608698    -0.13400
F928        F  0.81322996  0.38386686  0.13714809    -0.15800
F929        F  0.96043164  0.38060177  0.07239078    -0.15800
F930        F  0.90975590  0.43023177  0.04295073    -0.13400
C931        C  0.93483591  0.39044888  0.90628777     0.24600
C932        C  0.92413971  0.36259421  0.87892652    -0.23500
C933        C  0.88476029  0.35904989  0.86963935     0.19500
C934        C  0.85693790  0.38247358  0.88723897     0.24500
C935        C  0.86750898  0.41007778  0.91514157    -0.23500
C936        C  0.90699739  0.41336873  0.92448064     0.19400
F937        F  0.91912618  0.43893264  0.95126886    -0.13400
F938        F  0.97258325  0.39695432  0.91451914    -0.15800
F939        F  0.81956571  0.37791725  0.87658494    -0.15800
F940        F  0.87283632  0.33244461  0.84376023    -0.13400
C941        C  0.86516275  0.64361689  0.89190349     0.24600
C942        C  0.87422500  0.61583821  0.92096439    -0.23500
C943        C  0.91243491  0.61634251  0.93485576     0.19500
C944        C  0.94110829  0.64163602  0.91819302     0.24500
C945        C  0.93245364  0.66722538  0.88722363    -0.23500
C946        C  0.89364391  0.66897414  0.87568634     0.19400
F947        F  0.88308603  0.69525917  0.84814662    -0.13400
F948        F  0.82871581  0.64611698  0.87826769    -0.15800
F949        F  0.97764527  0.63977973  0.93153308    -0.15800
F950        F  0.92237126  0.59223945  0.96453574    -0.13400
C951        C  0.90194012  0.66533210  0.09408420     0.24600
C952        C  0.92269118  0.64964465  0.12517480    -0.23500
C953        C  0.91461970  0.61135173  0.13813849     0.19500
C954        C  0.88701823  0.58869029  0.11942029     0.24500
C955        C  0.86689059  0.60426481  0.08801736    -0.23500
C956        C  0.87406449  0.64280480  0.07573345     0.19400
F957        F  0.85433451  0.65839929  0.04568001    -0.13400
F958        F  0.90811957  0.70269979  0.08200477    -0.15800
F959        F  0.87950544  0.55174359  0.13217267    -0.15800
F960        F  0.93414962  0.59561598  0.16820447    -0.13400
C961        C  0.07188781  0.98667163  0.77310617     0.24600
C962        C  0.09091649  0.01834798  0.75457512    -0.23500
C963        C  0.08648674  0.05567843  0.76949367     0.19500
C964        C  0.06659516  0.06052421  0.80503262     0.24500
C965        C  0.05062079  0.02809206  0.82529401    -0.23500
C966        C  0.05156302  0.99154721  0.80807610     0.19400
F967        F  0.03491582  0.96005353  0.82660368    -0.13400
F968        F  0.07567248  0.95053520  0.75902389    -0.15800
F969        F  0.06572153  0.09605405  0.82110625    -0.15800
F970        F  0.10328086  0.08694062  0.75076643    -0.13400
C971        C  0.13173775  0.05776921  0.20078103     0.24600
C972        C  0.11616052  0.03271508  0.23065209    -0.23500
C973        C  0.08145937  0.01255775  0.22382308     0.19500
C974        C  0.06375964  0.01574394  0.18782636     0.24500
C975        C  0.08071966  0.03820602  0.15681317    -0.23500
C976        C  0.11432879  0.06025485  0.16411014     0.19400
F977        F  0.13140905  0.08264899  0.13545411    -0.13400
F978        F  0.16406968  0.07959549  0.20687011    -0.15800
F979        F  0.03027954  0.99539807  0.18288479    -0.15800
F980        F  0.06574562  0.98747766  0.25103532    -0.13400
C981        C  0.18548320  0.54440275  0.23296623     0.24600
C982        C  0.19064319  0.51277277  0.25901976    -0.23500
C983        C  0.20900552  0.47954087  0.24459963     0.19500
C984        C  0.22001051  0.47731019  0.20546017     0.24500
C985        C  0.21357856  0.50839050  0.17973218    -0.23500
C986        C  0.19603353  0.54185136  0.19391279     0.19400
F987        F  0.18930083  0.57280560  0.17008080    -0.13400
F988        F  0.17297526  0.57922175  0.24486348    -0.15800
F989        F  0.23861934  0.44539028  0.19321086    -0.15800
F990        F  0.21847943  0.44981251  0.26882009    -0.13400
C991        C  0.32616860  0.56062786  0.38366993     0.24600
C992        C  0.33443056  0.53424372  0.41376873    -0.23500
C993        C  0.30411545  0.50966985  0.42905002     0.19500
C994        C  0.26738372  0.50989017  0.41317455     0.24500
C995        C  0.25982517  0.53440760  0.38149643    -0.23500
C996        C  0.28922166  0.56056306  0.36747387     0.19400
F997        F  0.28252158  0.58524838  0.33721130    -0.13400
F998        F  0.35434278  0.58470693  0.36834325    -0.15800
F999        F  0.24017857  0.48379619  0.42692732    -0.15800
F1000       F  0.31021251  0.48410032  0.45874453    -0.13400
C1001       C  0.75894839  0.54275092  0.20614637     0.24600
C1002       C  0.75556932  0.50870389  0.18441833    -0.23500
C1003       C  0.76148364  0.47295731  0.20395100     0.19500
C1004       C  0.77180688  0.47133858  0.24310640     0.24500
C1005       C  0.77833831  0.50552373  0.26406585    -0.23500
C1006       C  0.76926771  0.54107217  0.24541821     0.19400
F1007       F  0.76956500  0.57453781  0.26543166    -0.13400
F1008       F  0.75209456  0.57797876  0.18968553    -0.15800
F1009       F  0.77283916  0.43582362  0.26057931    -0.15800
F1010       F  0.75710398  0.43890176  0.18540640    -0.13400
C1011       C  0.71619259  0.48563565  0.42247308     0.24600
C1012       C  0.73258251  0.51753928  0.40189085    -0.23500
C1013       C  0.71514555  0.55393992  0.40437479     0.19500
C1014       C  0.68019901  0.55771399  0.42532934     0.24500
C1015       C  0.66263368  0.52507073  0.44381702    -0.23500
C1016       C  0.68142777  0.48934756  0.44325384     0.19400
F1017       F  0.66443300  0.45731437  0.46045797    -0.13400
F1018       F  0.73189215  0.45010431  0.41942130    -0.15800
F1019       F  0.66177318  0.59206916  0.42443170    -0.15800
F1020       F  0.73061542  0.58508367  0.38434167    -0.13400
C1021       C  0.86226591  0.95248300  0.79703565     0.24600
C1022       C  0.87562525  0.97950191  0.76789626    -0.23500
C1023       C  0.90856634  0.00218643  0.77473718     0.19500
C1024       C  0.92574856  0.00067461  0.81099788     0.24500
C1025       C  0.90974110  0.97719214  0.84182091    -0.23500
C1026       C  0.87903916  0.95155157  0.83388491     0.19400
F1027       F  0.86354462  0.92769230  0.86230346    -0.13400
F1028       F  0.83175848  0.92828272  0.79041561    -0.15800
F1029       F  0.95712441  0.02400745  0.81648600    -0.15800
F1030       F  0.92204392  0.02864226  0.74766960    -0.13400
C1031       C  0.88920634  0.96427482  0.22321379     0.24600
C1032       C  0.88990421  0.99998941  0.24211482    -0.23500
C1033       C  0.91389689  0.03024524  0.22730925     0.19500
C1034       C  0.93532900  0.02565397  0.19285580     0.24500
C1035       C  0.93366541  0.99041774  0.17311712    -0.23500
C1036       C  0.91114626  0.95944171  0.18895052     0.19400
F1037       F  0.90748299  0.92596127  0.16929382    -0.13400
F1038       F  0.86525995  0.93502586  0.23658433    -0.15800
F1039       F  0.95516495  0.05669868  0.17690560    -0.15800
F1040       F  0.91380490  0.06535200  0.24411802    -0.13400
C1041       C  0.19695426  0.54846987  0.76031833     0.24600
C1042       C  0.19688916  0.51448216  0.73795221    -0.23500
C1043       C  0.21187665  0.48055938  0.75520121     0.19500
C1044       C  0.22390996  0.47979811  0.79373095     0.24500
C1045       C  0.22224241  0.51314614  0.81633426    -0.23500
C1046       C  0.20874671  0.54755748  0.79895101     0.19400
F1047       F  0.20638263  0.58073968  0.81931504    -0.13400
F1048       F  0.18780627  0.58352366  0.74511556    -0.15800
F1049       F  0.23751708  0.44615907  0.80870630    -0.15800
F1050       F  0.21568405  0.44783201  0.73442362    -0.13400
C1051       C  0.27149349  0.46733053  0.61158587     0.24600
C1052       C  0.24806025  0.49910370  0.60287359    -0.23500
C1053       C  0.25750801  0.52297133  0.57029047     0.19500
C1054       C  0.29219785  0.51752343  0.54932383     0.24500
C1055       C  0.31703487  0.48756714  0.56023059    -0.23500
C1056       C  0.30581270  0.46174648  0.59050265     0.19400
F1057       F  0.32971141  0.43303149  0.60165516    -0.13400
F1058       F  0.26207951  0.44281259  0.64190406    -0.15800
F1059       F  0.30305464  0.54324889  0.52045799    -0.15800
F1060       F  0.23493336  0.55332380  0.56082016    -0.13400
C1061       C  0.77878670  0.54224198  0.75583986     0.24600
C1062       C  0.78749490  0.50683584  0.73799096    -0.23500
C1063       C  0.78322413  0.47240464  0.76075724     0.19500
C1064       C  0.77341777  0.47342481  0.80019330     0.24500
C1065       C  0.76587303  0.50885577  0.81818171    -0.23500
C1066       C  0.76889175  0.54324202  0.79541899     0.19400
F1067       F  0.76116795  0.57811699  0.81099392    -0.13400
F1068       F  0.77708620  0.57594764  0.73501849    -0.15800
F1069       F  0.77104631  0.43920204  0.82044239    -0.15800
F1070       F  0.78673918  0.43707685  0.74461965    -0.13400
C1071       C  0.71362893  0.49874703  0.58047841     0.24600
C1072       C  0.72139643  0.47816801  0.61478489    -0.23500
C1073       C  0.69288574  0.45183451  0.63051684     0.19500
C1074       C  0.65580001  0.44977572  0.61467646     0.24500
C1075       C  0.64693164  0.47391911  0.58294546    -0.23500
C1076       C  0.67695372  0.49661019  0.56475335     0.19400
F1077       F  0.67022886  0.51892283  0.53278810    -0.13400
F1078       F  0.74021557  0.52390230  0.56399096    -0.15800
F1079       F  0.62804423  0.42650153  0.63202747    -0.15800
F1080       F  0.70043231  0.42927165  0.66217122    -0.13400
C1081       C  0.02345407  0.28087967  0.29423959     0.24600
C1082       C  0.99212408  0.28511119  0.32026397    -0.23500
C1083       C  0.95853237  0.30310468  0.30703205     0.19500
C1084       C  0.95550116  0.31510948  0.26842837     0.24500
C1085       C  0.98664397  0.31070140  0.24175527    -0.23500
C1086       C  0.02087111  0.29364631  0.25560266     0.19400
F1087       F  0.05120093  0.28689159  0.23104148    -0.13400
F1088       F  0.05601388  0.26284618  0.30560410    -0.15800
F1089       F  0.92071682  0.32842117  0.25766459    -0.15800
F1090       F  0.92781438  0.30891594  0.33140060    -0.13400
C1091       C  0.95736549  0.27199661  0.70651080     0.24600
C1092       C  0.99218402  0.27133829  0.68439135    -0.23500
C1093       C  0.02684175  0.28153316  0.70278297     0.19500
C1094       C  0.02635010  0.29479697  0.74090018     0.24500
C1095       C  0.99103809  0.29948712  0.76177591    -0.23500
C1096       C  0.95692157  0.28516792  0.74473080     0.19400
F1097       F  0.92305359  0.28223012  0.76542669    -0.13400
F1098       F  0.92349906  0.25926256  0.69156972    -0.15800
F1099       F  0.06099921  0.30132675  0.75757803    -0.15800
F1100       F  0.06168588  0.27859584  0.68414330    -0.13400
C1101       C  0.90384179  0.40142269  0.37743887     0.24600
C1102       C  0.89640690  0.38746920  0.41557825    -0.23500
C1103       C  0.86422693  0.40106187  0.43636081     0.19500
C1104       C  0.83951522  0.42799541  0.41928649     0.24500
C1105       C  0.84594022  0.44111178  0.38051147    -0.23500
C1106       C  0.87907365  0.42818454  0.36017165     0.19400
F1107       F  0.88847620  0.44261483  0.32406107    -0.13400
F1108       F  0.93528156  0.38944823  0.35699241    -0.15800
F1109       F  0.80901747  0.44063673  0.44063836    -0.15800
F1110       F  0.85636440  0.38756153  0.47313526    -0.13400
C1111       C  0.85217384  0.40156515  0.64103242     0.24600
C1112       C  0.84754472  0.43808446  0.62280375    -0.23500
C1113       C  0.86598125  0.44583208  0.58645660     0.19500
C1114       C  0.88848340  0.41784345  0.56885475     0.24500
C1115       C  0.89388316  0.38174815  0.58752544    -0.23500
C1116       C  0.87545346  0.37389244  0.62381824     0.19400
F1117       F  0.88030523  0.33961957  0.64306511    -0.13400
F1118       F  0.83342214  0.39206063  0.67514446    -0.15800
F1119       F  0.90457189  0.42606802  0.53314275    -0.15800
F1120       F  0.86330632  0.48079040  0.56804049    -0.13400
C1121       C  0.11164635  0.37691547  0.62167399     0.24600
C1122       C  0.08806184  0.38594686  0.58982700    -0.23500
C1123       C  0.08676831  0.42476063  0.57661108     0.19500
C1124       C  0.10752067  0.45373567  0.59501135     0.24500
C1125       C  0.13144827  0.44488908  0.62637415    -0.23500
C1126       C  0.13349677  0.40600354  0.63938581     0.19400
F1127       F  0.15752300  0.39578737  0.66840521    -0.13400
F1128       F  0.11372248  0.34000055  0.63584267    -0.15800
F1129       F  0.10341070  0.49070938  0.58203728    -0.15800
F1130       F  0.06585869  0.43507002  0.54521918    -0.13400
C1131       C  0.13104710  0.38360128  0.39846751     0.24600
C1132       C  0.09774259  0.39280321  0.42079037    -0.23500
C1133       C  0.09117533  0.43228744  0.42824475     0.19500
C1134       C  0.11610852  0.46145891  0.41259837     0.24500
C1135       C  0.14760505  0.45210257  0.38832350    -0.23500
C1136       C  0.15557403  0.41290167  0.38259014     0.19400
F1137       F  0.18706787  0.40297233  0.36097861    -0.13400
F1138       F  0.13990435  0.34626692  0.39128860    -0.15800
F1139       F  0.10809660  0.49898207  0.41964138    -0.15800
F1140       F  0.05998323  0.44310810  0.44977712    -0.13400
C1141       C  0.06882848  0.08740626  0.58806007     0.24600
C1142       C  0.07896848  0.12673997  0.59329356    -0.23500
C1143       C  0.10755299  0.13590105  0.62047779     0.19500
C1144       C  0.12580288  0.10659039  0.64121448     0.24500
C1145       C  0.11601886  0.06753032  0.63539113    -0.23500
C1146       C  0.08706317  0.05824891  0.60898783     0.19400
F1147       F  0.07616491  0.02091818  0.60324199    -0.13400
F1148       F  0.04069367  0.07680044  0.56324668    -0.15800
F1149       F  0.15189398  0.11656605  0.66836788    -0.15800
F1150       F  0.11775368  0.17321213  0.62761314    -0.13400
C1151       C  0.91785591  0.08321756  0.59877199     0.24600
C1152       C  0.91041146  0.12296078  0.60382937    -0.23500
C1153       C  0.88507332  0.13294033  0.63469163     0.19500
C1154       C  0.86754767  0.10443067  0.65912157     0.24500
C1155       C  0.87428103  0.06489448  0.65354270    -0.23500
C1156       C  0.89961014  0.05461014  0.62297846     0.19400
F1157       F  0.90513667  0.01680271  0.61494551    -0.13400
F1158       F  0.94223745  0.07167087  0.56996778    -0.15800
F1159       F  0.84340078  0.11570512  0.68823700    -0.15800
F1160       F  0.87652599  0.17045329  0.64132967    -0.13400
C1161       C  0.88713746  0.10024159  0.41856788     0.24600
C1162       C  0.90794284  0.13179652  0.40137781    -0.23500
C1163       C  0.90975842  0.13579969  0.36054752     0.19500
C1164       C  0.89143377  0.10839387  0.33736580     0.24500
C1165       C  0.87100703  0.07665361  0.35457542    -0.23500
C1166       C  0.86859303  0.07303591  0.39534560     0.19400
F1167       F  0.84776581  0.04341137  0.41267190    -0.13400
F1168       F  0.88353306  0.09665132  0.45788384    -0.15800
F1169       F  0.89294262  0.11335512  0.29815926    -0.15800
F1170       F  0.92967734  0.16600523  0.34310389    -0.13400
C1171       C  0.09311683  0.10149787  0.41916210     0.24600
C1172       C  0.07820704  0.13468902  0.40107009    -0.23500
C1173       C  0.08156987  0.13959579  0.36041772     0.19500
C1174       C  0.09927375  0.11132937  0.33815004     0.24500
C1175       C  0.11527160  0.07896644  0.35646154    -0.23500
C1176       C  0.11230783  0.07421119  0.39703318     0.19400
F1177       F  0.12793503  0.04308459  0.41513890    -0.13400
F1178       F  0.09016869  0.09616366  0.45838472    -0.15800
F1179       F  0.10162631  0.11587651  0.29884590    -0.15800
F1180       F  0.06720999  0.17137357  0.34230109    -0.13400
C1181       C  0.02343985  0.72681136  0.29774054     0.24600
C1182       C  0.98909539  0.74027257  0.31517109    -0.23500
C1183       C  0.95586038  0.74203641  0.29230449     0.19500
C1184       C  0.95693998  0.73026719  0.25349330     0.24500
C1185       C  0.99102980  0.71543850  0.23622025    -0.23500
C1186       C  0.02453274  0.71480452  0.25915131     0.19400
F1187       F  0.05944092  0.70453697  0.24466058    -0.13400
F1188       F  0.05660579  0.72483166  0.31805213    -0.15800
F1189       F  0.92438661  0.73408353  0.23247531    -0.15800
F1190       F  0.92218839  0.75569456  0.30715967    -0.13400
C1191       C  0.02034281  0.71012524  0.69190600     0.24600
C1192       C  0.98896223  0.73182130  0.67892523    -0.23500
C1193       C  0.96009658  0.74207508  0.70576853     0.19500
C1194       C  0.96305223  0.73159847  0.74501358     0.24500
C1195       C  0.99504258  0.71051663  0.75864167    -0.23500
C1196       C  0.02378663  0.70011168  0.73112414     0.19400
F1197       F  0.05667311  0.68235861  0.74130511    -0.13400
F1198       F  0.04824007  0.69852172  0.66649922    -0.15800
F1199       F  0.93539784  0.74404101  0.77022365    -0.15800
F1200       F  0.92982474  0.76374927  0.69443304    -0.13400
C1201       C  0.06913906  0.60534932  0.38970225     0.24600
C1202       C  0.08611217  0.63620067  0.40953671    -0.23500
C1203       C  0.12655498  0.63871421  0.41262155     0.19500
C1204       C  0.14973112  0.61007006  0.39688800     0.24500
C1205       C  0.13278908  0.57962233  0.37654765    -0.23500
C1206       C  0.09244454  0.57755394  0.37269937     0.19400
F1207       F  0.07571628  0.54839130  0.35274680    -0.13400
F1208       F  0.03014075  0.60271998  0.38603449    -0.15800
F1209       F  0.18872391  0.61254456  0.40060934    -0.15800
F1210       F  0.14346187  0.66847555  0.43157687    -0.13400
C1211       C  0.12743258  0.63894291  0.58845761     0.24600
C1212       C  0.08731076  0.63243195  0.58428681    -0.23500
C1213       C  0.07032460  0.59774371  0.59934939     0.19500
C1214       C  0.09303883  0.56987353  0.61754969     0.24500
C1215       C  0.13336715  0.57533289  0.61916566    -0.23500
C1216       C  0.15028787  0.61029518  0.60521895     0.19400
F1217       F  0.18887074  0.61700471  0.60884111    -0.13400
F1218       F  0.14462479  0.67289259  0.57615775    -0.15800
F1219       F  0.07544387  0.53834454  0.63501667    -0.15800
F1220       F  0.03143382  0.59170857  0.59813522    -0.13400
C1221       C  0.84650491  0.62538139  0.57536402     0.24600
C1222       C  0.88685251  0.62327327  0.57957698    -0.23500
C1223       C  0.90213549  0.59010880  0.59743234     0.19500
C1224       C  0.87740219  0.56040088  0.61227269     0.24500
C1225       C  0.83699749  0.56308180  0.60904244    -0.23500
C1226       C  0.82181445  0.59538167  0.58978683     0.19400
F1227       F  0.78298301  0.59842999  0.58612246    -0.13400
F1228       F  0.83102523  0.65646151  0.55705939    -0.15800
F1229       F  0.89280046  0.52972577  0.63135569    -0.15800
F1230       F  0.94088034  0.58736422  0.60221882    -0.13400
C1231       C  0.84764224  0.60815925  0.36339329     0.24600
C1232       C  0.85192223  0.56895331  0.37359488    -0.23500
C1233       C  0.87895937  0.55874029  0.40173438     0.19500
C1234       C  0.90087354  0.58731240  0.41989775     0.24500
C1235       C  0.89625661  0.62694183  0.41023752    -0.23500
C1236       C  0.86957236  0.63680510  0.38129924     0.19400
F1237       F  0.86408159  0.67427079  0.37037116    -0.13400
F1238       F  0.82090355  0.61902041  0.33719816    -0.15800
F1239       F  0.92610616  0.57588305  0.44737002    -0.15800
F1240       F  0.88449913  0.52097673  0.41156145    -0.13400
C1241       C  0.05967295  0.93263870  0.39791638     0.24600
C1242       C  0.06917334  0.89325502  0.39425354    -0.23500
C1243       C  0.09576344  0.88343532  0.36441324     0.19500
C1244       C  0.11375134  0.91210128  0.34065749     0.24500
C1245       C  0.10588634  0.95142078  0.34580330    -0.23500
C1246       C  0.07773364  0.96131161  0.37384646     0.19400
F1247       F  0.06892127  0.99887787  0.37945444    -0.13400
F1248       F  0.03340780  0.94377752  0.42519515    -0.15800
F1249       F  0.13959228  0.90133242  0.31280403    -0.15800
F1250       F  0.10534699  0.84606157  0.35841826    -0.13400
C1251       C  0.86783327  0.87873569  0.38101972     0.24600
C1252       C  0.89837371  0.88789503  0.40597944    -0.23500
C1253       C  0.91060737  0.92696679  0.40846521     0.19500
C1254       C  0.89306691  0.95586886  0.38656387     0.24500
C1255       C  0.86296978  0.94672345  0.36131480    -0.23500
C1256       C  0.85041053  0.90779724  0.35893131     0.19400
F1257       F  0.82224880  0.89744810  0.33408273    -0.13400
F1258       F  0.85488641  0.84159844  0.37749584    -0.15800
F1259       F  0.90560682  0.99298724  0.39059920    -0.15800
F1260       F  0.94028166  0.93754396  0.43145295    -0.13400
C1261       C  0.90802603  0.88476784  0.63553000     0.24600
C1262       C  0.90040016  0.88336882  0.59570442    -0.23500
C1263       C  0.87484154  0.90980134  0.57913156     0.19500
C1264       C  0.85573367  0.93628911  0.60263214     0.24500
C1265       C  0.86295491  0.93726769  0.64266982    -0.23500
C1266       C  0.88970553  0.91181149  0.65880424     0.19400
F1267       F  0.89766293  0.91278871  0.69725115    -0.13400
F1268       F  0.93400803  0.86054496  0.65160339    -0.15800
F1269       F  0.83112348  0.96170210  0.58619976    -0.15800
F1270       F  0.86816666  0.90962617  0.54037291    -0.13400
C1271       C  0.07322510  0.87946962  0.63731468     0.24600
C1272       C  0.07385811  0.88534083  0.59661163    -0.23500
C1273       C  0.09416976  0.91761232  0.58027125     0.19500
C1274       C  0.11360509  0.94346404  0.60423879     0.24500
C1275       C  0.11167090  0.93836037  0.64487824    -0.23500
C1276       C  0.09174158  0.90598346  0.66127911     0.19400
F1277       F  0.09062126  0.89975359  0.70037920    -0.13400
F1278       F  0.05405556  0.84834344  0.65390162    -0.15800
F1279       F  0.13479411  0.97332297  0.58779381    -0.15800
F1280       F  0.09632020  0.92334656  0.54110039    -0.13400
C1281       C  0.22201133  0.81359993  0.53384157     0.24600
C1282       C  0.24718439  0.81037524  0.50117214    -0.23500
C1283       C  0.23154375  0.79547193  0.46668371     0.19500
C1284       C  0.19227250  0.78559871  0.46450937     0.24500
C1285       C  0.16755695  0.78886239  0.49715563    -0.23500
C1286       C  0.18297022  0.80320267  0.53174213     0.19400
F1287       F  0.16057565  0.80628334  0.56446967    -0.13400
F1288       F  0.23487488  0.82369218  0.56917901    -0.15800
F1289       F  0.17907336  0.77071166  0.43096590    -0.15800
F1290       F  0.25481230  0.78776835  0.43558107    -0.13400
C1291       C  0.36734745  0.66522860  0.49773059     0.24600
C1292       C  0.39263600  0.65735784  0.52829626    -0.23500
C1293       C  0.40274838  0.68773690  0.55308208     0.19500
C1294       C  0.38885674  0.72535836  0.54638600     0.24500
C1295       C  0.36485809  0.73308808  0.51479359    -0.23500
C1296       C  0.35405235  0.70248854  0.49079689     0.19400
F1297       F  0.33096793  0.70881167  0.45994969    -0.13400
F1298       F  0.35680316  0.63673602  0.47322279    -0.15800
F1299       F  0.39823920  0.75404211  0.57106721    -0.15800
F1300       F  0.42704197  0.68161108  0.58272075    -0.13400
C1301       C  0.19510183  0.23253411  0.46343386     0.24600
C1302       C  0.17590857  0.24259791  0.49828457    -0.23500
C1303       C  0.19721340  0.24208700  0.53274390     0.19500
C1304       C  0.23550889  0.22950286  0.53272749     0.24500
C1305       C  0.25393701  0.21653292  0.49835912    -0.23500
C1306       C  0.23354485  0.22047667  0.46331249     0.19400
F1307       F  0.25086542  0.21520160  0.42816852    -0.13400
F1308       F  0.17690450  0.23443603  0.42888796    -0.15800
F1309       F  0.25494528  0.23104963  0.56655174    -0.15800
F1310       F  0.18132498  0.25428567  0.56669340    -0.13400
C1311       C  0.38660759  0.28378274  0.55134550     0.24600
C1312       C  0.38863283  0.26507227  0.51540310    -0.23500
C1313       C  0.41332660  0.27988713  0.48568296     0.19500
C1314       C  0.43375383  0.31455968  0.49075830     0.24500
C1315       C  0.43019796  0.33450628  0.52579560    -0.23500
C1316       C  0.40757946  0.31834289  0.55666130     0.19400
F1317       F  0.40319394  0.33754210  0.59045722    -0.13400
F1318       F  0.36249606  0.26976960  0.58031121    -0.15800
F1319       F  0.45463841  0.33051242  0.46028872    -0.15800
F1320       F  0.41481987  0.26276185  0.45054607    -0.13400
C1321       C  0.70098371  0.27137256  0.96261210     0.24600
C1322       C  0.69307028  0.24927449  0.99693378    -0.23500
C1323       C  0.69603529  0.26818525  0.03296568     0.19500
C1324       C  0.70362291  0.30799402  0.03421766     0.24500
C1325       C  0.71067327  0.32995194  0.99980329    -0.23500
C1326       C  0.70877587  0.31105083  0.96387945     0.19400
F1327       F  0.71526307  0.33052221  0.92950775    -0.13400
F1328       F  0.70324468  0.25419811  0.92750550    -0.15800
F1329       F  0.70532360  0.32458751  0.06958966    -0.15800
F1330       F  0.69519545  0.24844123  0.06746289    -0.13400
C1331       C  0.76873130  0.09110390  0.99059413     0.24600
C1332       C  0.76224618  0.12658635  0.97154356    -0.23500
C1333       C  0.79193589  0.14281135  0.94676080     0.19500
C1334       C  0.82857314  0.12595491  0.94450703     0.24500
C1335       C  0.83589472  0.09232974  0.96646544    -0.23500
C1336       C  0.80484853  0.07398650  0.98767173     0.19400
F1337       F  0.80999166  0.04012006  0.00748255    -0.13400
F1338       F  0.74130790  0.07430332  0.01471074    -0.15800
F1339       F  0.85737711  0.14386558  0.92299292    -0.15800
F1340       F  0.78589375  0.17566171  0.92553511    -0.13400
C1341       C  0.27269148  0.26551615  0.96817763     0.24600
C1342       C  0.28025619  0.24687788  0.00422964    -0.23500
C1343       C  0.26885970  0.26605988  0.03833082     0.19500
C1344       C  0.25644886  0.30437376  0.03668122     0.24500
C1345       C  0.25332477  0.32448014  0.00072049    -0.23500
C1346       C  0.26060437  0.30398724  0.96641514     0.19400
F1347       F  0.25603126  0.32089331  0.93082822    -0.13400
F1348       F  0.27530529  0.24620820  0.93431074    -0.15800
F1349       F  0.24737662  0.32154895  0.07074093    -0.15800
F1350       F  0.26790440  0.24742709  0.07349802    -0.13400
C1351       C  0.22747485  0.09493569  0.96474603     0.24600
C1352       C  0.23665909  0.10902192  0.00152355    -0.23500
C1353       C  0.21230223  0.10021081  0.03358865     0.19500
C1354       C  0.17776451  0.07978900  0.02858356     0.24500
C1355       C  0.16625755  0.06908271  0.99116034    -0.23500
C1356       C  0.19221229  0.07501809  0.95947378     0.19400
F1357       F  0.18217189  0.06458681  0.92320725    -0.13400
F1358       F  0.25112453  0.10337538  0.93352175    -0.15800
F1359       F  0.15428026  0.07238412  0.06016201    -0.15800
F1360       F  0.22061882  0.11384818  0.06925945    -0.13400
C1361       C  0.75545126  0.81642442  0.53299555     0.24600
C1362       C  0.72858320  0.80272347  0.50583388    -0.23500
C1363       C  0.74304171  0.78060342  0.47467081     0.19500
C1364       C  0.78177698  0.76980040  0.47264957     0.24500
C1365       C  0.80737366  0.78064154  0.50174617    -0.23500
C1366       C  0.79397655  0.80485875  0.53133400     0.19400
F1367       F  0.81877773  0.81922570  0.55777268    -0.13400
F1368       F  0.74612135  0.84311297  0.55965653    -0.15800
F1369       F  0.79402981  0.74841561  0.44226523    -0.15800
F1370       F  0.71947161  0.76932542  0.44575441    -0.13400
C1371       C  0.58485661  0.68742444  0.45563939     0.24600
C1372       C  0.55072639  0.67978672  0.47752075    -0.23500
C1373       C  0.53702106  0.70820277  0.50278768     0.19500
C1374       C  0.55853472  0.74272335  0.50788974     0.24500
C1375       C  0.59417458  0.74915204  0.48790512    -0.23500
C1376       C  0.60587378  0.72204461  0.46008827     0.19400
F1377       F  0.63870443  0.72833175  0.43821381    -0.13400
F1378       F  0.59932092  0.66005990  0.43190199    -0.15800
F1379       F  0.54603042  0.76821051  0.53458953    -0.15800
F1380       F  0.50453898  0.70105676  0.52494785    -0.13400
C1381       C  0.71698387  0.75299377  0.02772702     0.24600
C1382       C  0.70343036  0.77068901  0.99335787    -0.23500
C1383       C  0.70644813  0.74955913  0.95862851     0.19500
C1384       C  0.71735008  0.71081489  0.95945539     0.24500
C1385       C  0.72665935  0.69205424  0.99475991    -0.23500
C1386       C  0.72757156  0.71413032  0.02864407     0.19400
F1387       F  0.73920181  0.69841395  0.06286292    -0.13400
F1388       F  0.72098742  0.77363169  0.06057741    -0.15800
F1389       F  0.71887687  0.69194384  0.92523026    -0.15800
F1390       F  0.70142003  0.76637898  0.92316500    -0.13400
C1391       C  0.80780451  0.93936288  0.97211496     0.24600
C1392       C  0.82098243  0.94857584  0.00941279    -0.23500
C1393       C  0.79779002  0.93855561  0.04227508     0.19500
C1394       C  0.76289171  0.91775424  0.03787041     0.24500
C1395       C  0.75107173  0.90704964  0.00065721    -0.23500
C1396       C  0.77333132  0.91855394  0.96787354     0.19400
F1397       F  0.76308386  0.90713351  0.93193242    -0.13400
F1398       F  0.82972144  0.94835748  0.93973806    -0.15800
F1399       F  0.74223552  0.90534849  0.06997390    -0.15800
F1400       F  0.81056687  0.94559622  0.07852066    -0.13400
C1401       C  0.26668789  0.71105782  0.96629455     0.24600
C1402       C  0.26611509  0.68716463  0.99990973    -0.23500
C1403       C  0.27620293  0.70337438  0.03562604     0.19500
C1404       C  0.28532635  0.74254774  0.03790015     0.24500
C1405       C  0.28791055  0.76633550  0.00406640    -0.23500
C1406       C  0.27668218  0.75023498  0.96843824     0.19400
F1407       F  0.27290291  0.77259655  0.93583901    -0.13400
F1408       F  0.25643674  0.69700589  0.93133745    -0.15800
F1409       F  0.28899255  0.75722905  0.07392569    -0.15800
F1410       F  0.27694250  0.68160450  0.06898752    -0.13400
C1411       C  0.18094371  0.94321799  0.01006399     0.24600
C1412       C  0.14994690  0.92457111  0.03120111    -0.23500
C1413       C  0.15760382  0.89159783  0.05392224     0.19500
C1414       C  0.19452890  0.87552877  0.05244073     0.24500
C1415       C  0.22389578  0.89138784  0.02710658    -0.23500
C1416       C  0.21738189  0.92666271  0.00779578     0.19400
F1417       F  0.24516945  0.94384482  0.98440908    -0.13400
F1418       F  0.17550165  0.97676729  0.98980308    -0.35800
F1419       F  0.20122951  0.84359399  0.07483106    -0.15800
F1420       F  0.12888861  0.87338990  0.07529316    -0.13400
C1421       C  0.24998255  0.97726386  0.28709640     0.24600
C1422       C  0.23622437  0.00974011  0.30734206    -0.23500
C1423       C  0.26406885  0.03662253  0.32091558     0.19500
C1424       C  0.30325442  0.03281075  0.31141854     0.24500
C1425       C  0.31601741  0.00220390  0.28846107    -0.23500
C1426       C  0.28934568  0.97326490  0.27838367     0.19400
F1427       F  0.30095806  0.94203460  0.25822949    -0.13400
F1428       F  0.22496308  0.94992984  0.27400562    -0.15800
F1429       F  0.32884831  0.05961396  0.32458746    -0.15800
F1430       F  0.25454970  0.06781227  0.34187911    -0.13400
C1431       C  0.73642761  0.97846345  0.27758753     0.24600
C1432       C  0.75406833  0.01345017  0.28951344    -0.23500
C1433       C  0.73361839  0.04801686  0.28320250     0.19500
C1434       C  0.69555552  0.04695225  0.27018103     0.24500
C1435       C  0.67676094  0.01143718  0.26219108    -0.23500
C1436       C  0.69844006  0.97743416  0.26439549     0.19400
F1437       F  0.68327292  0.94297686  0.25315152    -0.13400
F1438       F  0.75635902  0.94499109  0.27758056    -0.15800
F1439       F  0.67743947  0.08116648  0.26505554    -0.15800
F1440       F  0.75059725  0.08338096  0.28721297    -0.13400
C1441       C  0.39520922  0.83995695  0.41158935     0.24600
C1442       C  0.37546978  0.85633202  0.44300440    -0.23500
C1443       C  0.37459294  0.89690494  0.44575771     0.19500
C1444       C  0.39286109  0.92082715  0.41720890     0.24500
C1445       C  0.41209754  0.90452957  0.38532090    -0.23500
C1446       C  0.41331575  0.86386577  0.38283041     0.19400
F1447       F  0.43205170  0.84731902  0.35251099    -0.13400
F1448       F  0.39570372  0.80088902  0.40807425    -0.15800
F1449       F  0.39005128  0.95987615  0.41963619    -0.15800
F1450       F  0.35507391  0.91332155  0.47565818    -0.13400
C1451       C  0.63474664  0.87142945  0.40126198     0.24600
C1452       C  0.62006080  0.87134685  0.43983753    -0.23500
C1453       C  0.58882256  0.89516024  0.44892084     0.19500
C1454       C  0.57065147  0.91616626  0.41975510     0.24500
C1455       C  0.58463754  0.91559240  0.38090838    -0.23500
C1456       C  0.61758809  0.89376487  0.37225723     0.19400
F1457       F  0.63320983  0.89368852  0.33566063    -0.13400
F1458       F  0.66488866  0.84889916  0.39108028    -0.15800
F1459       F  0.53865059  0.93621447  0.42972011    -0.15800
F1460       F  0.57596336  0.89869257  0.48622659    -0.13400
C1461       C  0.41505113  0.09815495  0.42142735     0.24600
C1462       C  0.40984353  0.10462802  0.38113197    -0.23500
C1463       C  0.38660056  0.13597485  0.36966676     0.19500
C1464       C  0.36925350  0.15970697  0.39730367     0.24500
C1465       C  0.37412763  0.15288672  0.43729014    -0.23500
C1466       C  0.39763515  0.12211652  0.44904198     0.19400
F1467       F  0.40274172  0.11418084  0.48739718    -0.13400
F1468       F  0.43643390  0.06820115  0.43447624    -0.15800
F1469       F  0.34804181  0.19000688  0.38477568    -0.15800
F1470       F  0.38038017  0.14405336  0.33153835    -0.13400
C1471       C  0.45292819  0.23811277  0.19193822     0.24600
C1472       C  0.48504193  0.26382803  0.19514837    -0.23500
C1473       C  0.51983434  0.24857890  0.20948073     0.19500
C1474       C  0.52232481  0.20963702  0.22054379     0.24500
C1475       C  0.49028559  0.18445944  0.21741605    -0.23500
C1476       C  0.45601310  0.19888699  0.20170805     0.19400
F1477       F  0.42475157  0.17521135  0.19647708    -0.13400
F1478       F  0.41735173  0.25051128  0.18254716    -0.15800
F1479       F  0.55568101  0.19717748  0.23623596    -0.15800
F1480       F  0.55102317  0.27201440  0.21559606    -0.13400
C1481       C  0.45686245  0.80663401  0.22047923     0.24600
C1482       C  0.49218105  0.82378392  0.23177208    -0.23500
C1483       C  0.52527102  0.80075031  0.23176022     0.19500
C1484       C  0.52325323  0.76220571  0.21983065     0.24500
C1485       C  0.48820204  0.74531572  0.20691859    -0.23500
C1486       C  0.45479480  0.76821499  0.20854924     0.19400
F1487       F  0.41919897  0.75373209  0.20086062    -0.13400
F1488       F  0.42358567  0.82688257  0.22097492    -0.15800
F1489       F  0.55580455  0.74095144  0.22187400    -0.15800
F1490       F  0.55965729  0.81510743  0.24403176    -0.13400
C1491       C  0.62273672  0.09020196  0.04724159     0.24600
C1492       C  0.64971012  0.11919089  0.05725536    -0.23500
C1493       C  0.65280403  0.12855307  0.09668420     0.19500
C1494       C  0.62742250  0.11213860  0.12484152     0.24500
C1495       C  0.59835965  0.08507749  0.11467482    -0.23500
C1496       C  0.59737420  0.07328746  0.07558669     0.19400
F1497       F  0.57158455  0.04576941  0.06438949    -0.13400
F1498       F  0.61936244  0.07941678  0.00978207    -0.15800
F1499       F  0.63111582  0.12376106  0.16205921    -0.15800
F1500       F  0.68002933  0.15461370  0.10806801    -0.13400
C1501       C  0.62175680  0.89579162  0.12902558     0.24600
C1502       C  0.58937568  0.91810666  0.11897287    -0.23500
C1503       C  0.58039782  0.92184230  0.07918637     0.19500
C1504       C  0.60331139  0.90445889  0.05064038     0.24500
C1505       C  0.63467142  0.88150846  0.06104153    -0.23500
C1506       C  0.64356343  0.87714335  0.10043972     0.19400
F1507       F  0.67442162  0.85602312  0.11118836    -0.13400
F1508       F  0.63313546  0.89249752  0.16645408    -0.15800
F1509       F  0.59439808  0.90966067  0.01266780    -0.15800
F1510       F  0.54941592  0.94226973  0.06754167    -0.13400
C1511       C  0.34345659  0.87078647  0.11210253     0.24600
C1512       C  0.34742585  0.88141578  0.07258278    -0.23500
C1513       C  0.37507728  0.90975169  0.06077993     0.19500
C1514       C  0.39919449  0.92662726  0.08783881     0.24500
C1515       C  0.39504845  0.91667540  0.12779502    -0.23500
C1516       C  0.36646805  0.88871288  0.13959269     0.19400
F1517       F  0.36041341  0.87863889  0.17767401    -0.13400
F1518       F  0.31655456  0.84366657  0.12424851    -0.15800
F1519       F  0.42640089  0.95292074  0.07455110    -0.15800
F1520       F  0.37948695  0.92066166  0.02280086    -0.13400
C1521       C  0.35818467  0.07892077  0.11726906     0.24600
C1522       C  0.39596076  0.09243495  0.12416222    -0.23500
C1523       C  0.40952940  0.12694328  0.10569785     0.19500
C1524       C  0.38567807  0.14759173  0.08048031     0.24500
C1525       C  0.34809826  0.13365984  0.07295563    -0.23500
C1526       C  0.33453553  0.09922998  0.09167657     0.19400
F1527       F  0.29813658  0.08554502  0.08554389    -0.13400
F1528       F  0.34433153  0.04585526  0.13515908    -0.15800
F1529       F  0.39971029  0.18050856  0.06246853    -0.15800
F1530       F  0.44576984  0.14075946  0.11238192    -0.13400
C1531       C  0.75283314  0.21312264  0.53655960     0.24600
C1532       C  0.73249926  0.21484505  0.50122568    -0.23500
C1533       C  0.75222603  0.23087359  0.46801179     0.19500
C1534       C  0.79070180  0.24337358  0.46948516     0.24500
C1535       C  0.81142839  0.23928829  0.50397847    -0.23500
C1536       C  0.79184185  0.22440098  0.53758496     0.19400
F1537       F  0.81027222  0.22057203  0.57189098    -0.13400
F1538       F  0.73558828  0.20266484  0.57101118    -0.15800
F1539       F  0.80735482  0.26007193  0.43694148    -0.15800
F1540       F  0.73351130  0.23621961  0.43405744    -0.13400
C1541       C  0.58200721  0.14394663  0.37203382     0.24600
C1542       C  0.58601720  0.10352523  0.37322730    -0.23500
C1543       C  0.60901131  0.08662551  0.40199709     0.19500
C1544       C  0.62778727  0.10996662  0.42903341     0.24500
C1545       C  0.62264884  0.15031616  0.42849878    -0.23500
C1546       C  0.59975064  0.16705864  0.39971941     0.19400
F1547       F  0.59479065  0.20595291  0.39828534    -0.13400
F1548       F  0.55967161  0.16091215  0.34480111    -0.15800
F1549       F  0.65004239  0.09310700  0.45640330    -0.15800
F1550       F  0.61353073  0.04764711  0.40365881    -0.13400
C1551       C  0.55626621  0.31848328  0.49097076     0.24600
C1552       C  0.57455724  0.34957209  0.46967338    -0.23500
C1553       C  0.60744581  0.34200168  0.44669350     0.19500
C1554       C  0.62354939  0.30498899  0.44783793     0.24500
C1555       C  0.60760008  0.27532540  0.47281456    -0.23500
C1556       C  0.57296165  0.28204537  0.49307065     0.19400
F1557       F  0.55718050  0.25466562  0.51793124    -0.13400
F1558       F  0.52312378  0.32394773  0.51184583    -0.15800
F1559       F  0.65605775  0.29872769  0.42614641    -0.15800
F1560       F  0.62574252  0.37095264  0.42567843    -0.13400
C1561       C  0.28475633  0.97181744  0.72981446     0.24600
C1562       C  0.30537664  0.00723685  0.73295139    -0.23500
C1563       C  0.28588265  0.04175475  0.72431763     0.19500
C1564       C  0.24756133  0.04073878  0.71184133     0.24500
C1565       C  0.22751558  0.00513362  0.70655604    -0.23500
C1566       C  0.24633920  0.97084170  0.71790169     0.19400
F1567       F  0.22736289  0.93606246  0.71965210    -0.13400
F1568       F  0.30139222  0.93759033  0.73885849    -0.15800
F1569       F  0.22989519  0.07507660  0.70616390    -0.15800
F1570       F  0.30368094  0.07688786  0.72786724    -0.13400
C1571       C  0.73304612  0.03903470  0.72137388     0.24600
C1572       C  0.74900754  0.00388073  0.70877684    -0.23500
C1573       C  0.72587899  0.96993277  0.71343780     0.19500
C1574       C  0.68697873  0.97178189  0.72458123     0.24500
C1575       C  0.66981838  0.00766993  0.73222617    -0.23500
C1576       C  0.69373380  0.04116805  0.73154066     0.19400
F1577       F  0.67962353  0.07592130  0.74204947    -0.13400
F1578       F  0.75575061  0.07097095  0.72651308    -0.15800
F1579       F  0.66650479  0.93786479  0.72842477    -0.15800
F1580       F  0.74123422  0.93432836  0.70952846    -0.13400
C1581       C  0.35040718  0.11004305  0.57667465     0.24600
C1582       C  0.36290249  0.14840457  0.56844127    -0.23500
C1583       C  0.39369338  0.16441111  0.58923138     0.19500
C1584       C  0.41177901  0.14243454  0.61775250     0.24500
C1585       C  0.39991072  0.10391787  0.62523283    -0.23500
C1586       C  0.36903832  0.08781587  0.60483906     0.19400
F1587       F  0.35694360  0.05069350  0.61241250    -0.13400
F1588       F  0.32128022  0.09370094  0.55643784    -0.15800
F1589       F  0.44149117  0.15843227  0.63748212    -0.15800
F1590       F  0.40627733  0.20138973  0.58203274    -0.13400
C1591       C  0.55796861  0.11085340  0.57832821     0.24600
C1592       C  0.56717494  0.11511120  0.61792961    -0.23500
C1593       C  0.59233748  0.14607178  0.62746211     0.19500
C1594       C  0.60944439  0.17013802  0.59836113     0.24500
C1595       C  0.60247880  0.16393245  0.55874572    -0.23500
C1596       C  0.57536607  0.13499305  0.54918094     0.19400
F1597       F  0.56715939  0.12845554  0.51147101    -0.13400
F1598       F  0.53279661  0.08268384  0.56735679    -0.15800
F1599       F  0.63366908  0.19930432  0.60904960    -0.15800
F1600       F  0.60130209  0.15296000  0.66495764    -0.13400
C1601       C  0.61758044  0.90251459  0.56961633     0.24600
C1602       C  0.60837113  0.86262894  0.56871017    -0.23500
C1603       C  0.58165482  0.84655564  0.59614590     0.19500
C1604       C  0.56391774  0.87013008  0.62371963     0.24500
C1605       C  0.57169103  0.91031340  0.62330288    -0.23500
C1606       C  0.59889376  0.92628772  0.59631404     0.19400
F1607       F  0.60865276  0.96455715  0.59711242    -0.13400
F1608       F  0.64516649  0.91829054  0.54500570    -0.15800
F1609       F  0.53935949  0.85373558  0.65105038    -0.15800
F1610       F  0.57395083  0.80786515  0.59722001    -0.13400
C1611       C  0.42164179  0.90105812  0.58806944     0.24600
C1612       C  0.40580059  0.90385381  0.62611864    -0.23500
C1613       C  0.37288065  0.88062272  0.63637850     0.19500
C1614       C  0.35524670  0.85711690  0.60900774     0.24500
C1615       C  0.36991377  0.85588710  0.57056735    -0.23500
C1616       C  0.40400083  0.87726136  0.56070903     0.19400
F1617       F  0.41959097  0.87654234  0.52417302    -0.13400
F1618       F  0.45434030  0.92128615  0.57712830    -0.15800
F1619       F  0.32355683  0.83541983  0.62028074    -0.15800
F1620       F  0.35686015  0.88114887  0.67276630    -0.13400
C1621       C  0.52257177  0.20682248  0.78652211     0.24600
C1622       C  0.48806256  0.18854314  0.77496230    -0.23500
C1623       C  0.45375311  0.20988151  0.77569520     0.19500
C1624       C  0.45430807  0.24865693  0.78643531     0.24500
C1625       C  0.48876142  0.26694784  0.79874077    -0.23500
C1626       C  0.52319779  0.24555950  0.79707610     0.19400
F1627       F  0.55841366  0.26210951  0.80279338    -0.13400
F1628       F  0.55629192  0.18737050  0.78775004    -0.15800
F1629       F  0.42103034  0.26863407  0.78342966    -0.15800
F1630       F  0.41940281  0.19357604  0.76567759    -0.13400
C1631       C  0.45352985  0.80444796  0.77618039     0.24600
C1632       C  0.48606340  0.82912307  0.77883901    -0.23500
C1633       C  0.51954290  0.81495900  0.79622075     0.19500
C1634       C  0.52129383  0.77660840  0.80891734     0.24500
C1635       C  0.48911233  0.75109896  0.80546507    -0.23500
C1636       C  0.45514110  0.76590301  0.78886444     0.19400
F1637       F  0.42414743  0.74239569  0.78212062    -0.13400
F1638       F  0.42057420  0.81698422  0.75969968    -0.15800
F1639       F  0.55592317  0.76471287  0.82174392    -0.15800
F1640       F  0.55134553  0.83807989  0.80071193    -0.13400
C1641       C  0.38276536  0.11097897  0.95253232     0.24600
C1642       C  0.35262035  0.13548817  0.94213248    -0.23500
C1643       C  0.34459507  0.14125940  0.90267214     0.19500
C1644       C  0.36626934  0.12283852  0.87395481     0.24500
C1645       C  0.39599285  0.09717056  0.88409922    -0.23500
C1646       C  0.40412940  0.09187835  0.92396561     0.19400
F1647       F  0.43275320  0.06824723  0.93565466    -0.13400
F1648       F  0.39198935  0.10591603  0.99045331    -0.15800
F1649       F  0.35760294  0.13008541  0.83621967    -0.15800
F1650       F  0.31467224  0.16368480  0.89189026    -0.13400
C1651       C  0.38142320  0.88437173  0.94378616     0.24600
C1652       C  0.34141807  0.89110473  0.94550408    -0.23500
C1653       C  0.32482221  0.91451998  0.91687782     0.19500
C1654       C  0.34784827  0.93042101  0.88631796     0.24500
C1655       C  0.38796217  0.92442815  0.88517179    -0.23500
C1656       C  0.40470746  0.90180010  0.91440712     0.19400
F1657       F  0.44334806  0.89532399  0.91354674    -0.13400
F1658       F  0.39772430  0.86016323  0.97012447    -0.15800
F1659       F  0.33109225  0.95181488  0.85796077    -0.15800
F1660       F  0.28616495  0.92058414  0.91765188    -0.13400
C1661       C  0.57380360  0.89013267  0.89896090     0.24600
C1662       C  0.58710958  0.92330086  0.87806756    -0.23500
C1663       C  0.62477097  0.93781162  0.88390471     0.19500
C1664       C  0.64871902  0.91956667  0.91073162     0.24500
C1665       C  0.63549770  0.88626040  0.93156776    -0.23500
C1666       C  0.59791598  0.87153309  0.92532040     0.19400
F1667       F  0.58431156  0.83954329  0.94531075    -0.13400
F1668       F  0.53761254  0.87555076  0.89345323    -0.15800
F1669       F  0.68516213  0.93375479  0.91559617    -0.15800
F1670       F  0.63824299  0.96971336  0.86367632    -0.13400
C1671       C  0.62889590  0.09556993  0.87098046     0.24600
C1672       C  0.58856521  0.09229616  0.87739084    -0.23500
C1673       C  0.57203488  0.10805645  0.91115175     0.19500
C1674       C  0.59516863  0.12869296  0.93679087     0.24500
C1675       C  0.63532889  0.13211012  0.93004732    -0.23500
C1676       C  0.65213445  0.11475140  0.89753682     0.19400
F1677       F  0.69106657  0.11682708  0.89134824    -0.13400
F1678       F  0.64589974  0.07941244  0.83945394    -0.15800
F1679       F  0.57849550  0.14489785  0.96847032    -0.15800
F1680       F  0.53340594  0.10427494  0.91881419    -0.13400
loop_ 
_geom_bond_atom_site_label_1 
_geom_bond_atom_site_label_2 
_geom_bond_distance 
_geom_bond_site_symmetry_2 
_ccdc_geom_bond_type 
O1           C12   1.291       .  A
O1          Eu37   2.459       .  S
O2           C13   1.294       .  A
O2          Eu36   2.474       .  S
O3           C14   1.293       .  A
O3           Eu9   2.471       .  S
O4           C15   1.293       .  A
O4           Eu9   2.462       .  S
O5           C15   1.289       .  A
O5          Eu39   2.445       .  S
O6           C14   1.287   1_565  A
O6          Eu38   2.436       .  S
O7           C13   1.293       .  A
O7           Eu9   2.466       .  S
O8           C12   1.292       .  A
O8           Eu9   2.463       .  S
Eu9          O19   2.356       .  S
Eu9          O11   2.347       .  S
Eu9          O10   2.350       .  S
Eu9          O17   2.360       .  S
O10         Eu39   2.355       .  S
O10         Eu36   2.363       .  S
O11         Eu37   2.351       .  S
O11         Eu38   2.337   1_545  S
C12        C1672   1.478       .  S
C13        C1592   1.502       .  S
C14        C1575   1.489       .  S
C15        C1622   1.486       .  S
H16          O17   0.966       .  S
O17         Eu38   2.357   1_545  S
O17         Eu36   2.348       .  S
H18          O19   0.965       .  S
O19         Eu37   2.333       .  S
O19         Eu39   2.356       .  S
O20          C43   1.295       .  A
O20         Eu36   2.481   1_565  S
O21          C44   1.290       .  A
O21         Eu37   2.449   1_565  S
O22          C45   1.288       .  A
O22         Eu38   2.444       .  S
O23          C46   1.288       .  A
O23         Eu39   2.444       .  S
O24          C47   1.291       .  A
O24         Eu39   2.459       .  S
O25          C48   1.289       .  A
O25         Eu38   2.453       .  S
O26          C49   1.289       .  A
O26         Eu40   2.445       .  S
O27          C50   1.292   1_565  A
O27         Eu40   2.460       .  S
O28          C49   1.288       .  A
O28         Eu38   2.436       .  S
O29          C50   1.293       .  A
O29         Eu39   2.469       .  S
O30          C45   1.295       .  A
O30         Eu36   2.480   1_565  S
O31          C48   1.292       .  A
O31         Eu37   2.472   1_565  S
O32          C47   1.292       .  A
O32         Eu37   2.466       .  S
O33          C46   1.291       .  A
O33         Eu36   2.460       .  S
O34          C43   1.293       .  A
O34         Eu40   2.464       .  S
O35          C44   1.291       .  A
O35         Eu40   2.456       .  S
Eu36         O54   2.350       .  S
Eu36         O42   2.347   1_545  S
Eu37         O41   2.366       .  S
Eu37         O52   2.335   1_545  S
Eu38         O52   2.351       .  S
Eu38         O42   2.339       .  S
Eu39         O41   2.343       .  S
Eu39         O54   2.358       .  S
Eu40         O41   2.351   1_565  S
Eu40         O52   2.362       .  S
Eu40         O54   2.347   1_565  S
Eu40         O42   2.347       .  S
C43        C1612   1.498       .  S
C44        C1655   1.466       .  S
C45        C1605   1.474       .  S
C46        C1585   1.461       .  S
C47        C1645   1.497       .  S
C48        C1662   1.471       .  S
C49        C1632   1.473       .  S
C50        C1562   1.497       .  S
H51          O52   0.965       .  S
H53          O54   0.965       .  S
C55          C56   1.537       .  S
C55          C61   1.526       .  S
C55          C59   1.545       .  S
C55        C1532   1.532       .  S
C56          H63   1.078       .  S
C56          C57   1.367       .  D
C57          C58   1.551       .  S
C57        C1595   1.497       .  S
C58          C62   1.547       .  S
C58          C60   1.543       .  S
C58          H64   1.110       .  S
C59          H65   1.086       .  S
C59          C60   1.369       .  D
C60        C1545   1.484       .  S
C61          H66   1.087       .  S
C61          C62   1.355       .  D
C62        C1555   1.488       .  S
O67          C78   1.293       .  A
O67        Eu103   2.471       .  S
O68          C79   1.294       .  A
O68        Eu102   2.477       .  S
O69          C80   1.289       .  A
O69         Eu75   2.446       .  S
O70          C81   1.292       .  A
O70         Eu75   2.462       .  S
O71          C81   1.286       .  A
O71        Eu105   2.424       .  S
O72          C80   1.293   1_565  A
O72        Eu104   2.470       .  S
O73          C79   1.291       .  A
O73         Eu75   2.459       .  S
O74          C78   1.293       .  A
O74         Eu75   2.467       .  S
Eu75         O85   2.353       .  S
Eu75         O77   2.347       .  S
Eu75         O76   2.342       .  S
Eu75         O83   2.347       .  S
O76        Eu105   2.355       .  S
O76        Eu102   2.345       .  S
O77        Eu103   2.352       .  S
O77        Eu104   2.351   1_545  S
C78        C1542   1.479       .  S
C79        C1495   1.498       .  S
C80        C1435   1.494       .  S
C81        C1475   1.479       .  S
H82          O83   0.965       .  S
O83        Eu104   2.344   1_545  S
O83        Eu102   2.360       .  S
H84          O85   0.966       .  S
O85        Eu103   2.363       .  S
O85        Eu105   2.346       .  S
O86         C109   1.291       .  A
O86        Eu102   2.451   1_565  S
O87         C110   1.295       .  A
O87        Eu103   2.483   1_565  S
O88         C111   1.292       .  A
O88        Eu104   2.462       .  S
O89         C112   1.290       .  A
O89        Eu105   2.456       .  S
O90         C113   1.293       .  A
O90        Eu105   2.467       .  S
O91         C114   1.293       .  A
O91        Eu104   2.461       .  S
O92         C115   1.288       .  A
O92        Eu106   2.441       .  S
O93         C116   1.291   1_565  A
O93        Eu106   2.460       .  S
O94         C115   1.294       .  A
O94        Eu104   2.474       .  S
O95         C116   1.289       .  A
O95        Eu105   2.441       .  S
O96         C111   1.295       .  A
O96        Eu102   2.478   1_565  S
O97         C114   1.289       .  A
O97        Eu103   2.438   1_565  S
O98         C113   1.295       .  A
O98        Eu103   2.483       .  S
O99         C112   1.296       .  A
O99        Eu102   2.489       .  S
O100        C109   1.290       .  A
O100       Eu106   2.447       .  S
O101        C110   1.290       .  A
O101       Eu106   2.447       .  S
Eu102       O120   2.376       .  S
Eu102       O108   2.353   1_545  S
Eu103       O107   2.337       .  S
Eu103       O118   2.373   1_545  S
Eu104       O118   2.352       .  S
Eu104       O108   2.349       .  S
Eu105       O107   2.336       .  S
Eu105       O120   2.348       .  S
Eu106       O107   2.343   1_565  S
Eu106       O118   2.349       .  S
Eu106       O120   2.352   1_565  S
Eu106       O108   2.350       .  S
C109       C1515   1.485       .  S
C110       C1445   1.478       .  S
C111       C1502   1.500       .  S
C112       C1522   1.475       .  S
C113       C1462   1.505       .  S
C114       C1455   1.483       .  S
C115       C1482   1.495       .  S
C116       C1425   1.478       .  S
H117        O118   0.965       .  S
H119        O120   0.966       .  S
C121        C122   1.530   1_554  S
C121        C127   1.523       .  S
C121        C125   1.543       .  S
C121       C1405   1.517       .  S
C122        H129   1.086       .  S
C122        C123   1.359       .  D
C123        C124   1.545   1_556  S
C123       C1652   1.472       .  S
C124        C128   1.547       .  S
C124        C126   1.536       .  S
C124        H130   1.110       .  S
C125        H131   1.085       .  S
C125        C126   1.365       .  D
C126       C1512   1.474       .  S
C127        H132   1.087       .  S
C127        C128   1.361       .  D
C128       C1415   1.489       .  S
C133        C134   1.550   1_556  S
C133        C139   1.529       .  S
C133        C137   1.545       .  S
C133       C1382   1.534       .  S
C134        H141   1.086       .  S
C134        C135   1.372       .  D
C135        C136   1.535   1_554  S
C135       C1505   1.483       .  S
C136        C140   1.532       .  S
C136        C138   1.538       .  S
C136        H142   1.111       .  S
C137        H143   1.082       .  S
C137        C138   1.364       .  D
C138       C1665   1.482       .  S
C139        H144   1.087       .  S
C139        C140   1.358       .  D
C140       C1395   1.469   1_556  S
C145        C146   1.535       .  S
C145        C151   1.536       .  S
C145        C149   1.545       .  S
C145       C1362   1.537       .  S
C146        H153   1.086       .  S
C146        C147   1.366       .  D
C147        C148   1.543       .  S
C147       C1452   1.485       .  S
C148        C152   1.543       .  S
C148        C150   1.544       .  S
C148        H154   1.109       .  S
C149        H155   1.079       .  S
C149        C150   1.365       .  D
C150       C1602   1.483       .  S
C151        H156   1.086       .  S
C151        C152   1.364       .  D
C152       C1375   1.497       .  S
C157        C158   1.551       .  S
C157        C163   1.528       .  S
C157        C161   1.547   1_554  S
C157       C1342   1.537       .  S
C158        H165   1.085       .  S
C158        C159   1.372       .  D
C159        C160   1.537       .  S
C159       C1525   1.485       .  S
C160        C164   1.529       .  S
C160        C162   1.533   1_554  S
C160        H166   1.111       .  S
C161        H167   1.085       .  S
C161        C162   1.368       .  D
C162       C1642   1.481       .  S
C163        H168   1.087       .  S
C163        C164   1.358       .  D
C164       C1352   1.467       .  S
C169        C170   1.544       .  S
C169        C175   1.528       .  S
C169        C173   1.534   1_556  S
C169       C1322   1.529       .  S
C170        H177   1.086       .  S
C170        C171   1.367       .  D
C171        C172   1.535       .  S
C171       C1675   1.474       .  S
C172        C176   1.547       .  S
C172        C174   1.547   1_556  S
C172        H178   1.108       .  S
C173        H179   1.082       .  S
C173        C174   1.366       .  D
C174       C1492   1.493       .  S
C175        H180   1.086       .  S
C175        C176   1.361       .  D
C176       C1332   1.493       .  S
C181        C182   1.550       .  S
C181        C187   1.530       .  S
C181        C185   1.547       .  S
C181       C1305   1.541       .  S
C182        H189   1.082       .  S
C182        C183   1.371       .  D
C183        C184   1.540       .  S
C183       C1465   1.497       .  S
C184        C188   1.532       .  S
C184        C186   1.534       .  S
C184        H190   1.111       .  S
C185        H191   1.086       .  S
C185        C186   1.370       .  D
C186       C1582   1.475       .  S
C187        H192   1.087       .  S
C187        C188   1.357       .  D
C188       C1312   1.471       .  S
C193        C194   1.545       .  S
C193        C199   1.523       .  S
C193        C197   1.533       .  S
C193       C1282   1.529       .  S
C194        H201   1.081       .  S
C194        C195   1.372       .  D
C195        C196   1.543       .  S
C195       C1615   1.493       .  S
C196        C200   1.547       .  S
C196        C198   1.548       .  S
C196        H202   1.110       .  S
C197        H203   1.087       .  S
C197        C198   1.364       .  D
C198       C1442   1.478       .  S
C199        H204   1.088       .  S
C199        C200   1.356       .  D
C200       C1295   1.486       .  S
O205        C216   1.290       .  A
O205       Eu241   2.450       .  S
O206        C217   1.292   1_455  A
O206       Eu240   2.459       .  S
O207        C218   1.291       .  A
O207       Eu213   2.453       .  S
O208        C219   1.292       .  A
O208       Eu213   2.463       .  S
O209        C219   1.291       .  A
O209       Eu243   2.455       .  S
O210        C218   1.290       .  A
O210       Eu242   2.447       .  S
O211        C217   1.293       .  A
O211       Eu213   2.469       .  S
O212        C216   1.292       .  A
O212       Eu213   2.463       .  S
Eu213       O223   2.349       .  S
Eu213       O215   2.349       .  S
Eu213       O214   2.344       .  S
Eu213       O221   2.351       .  S
O214       Eu243   2.350       .  S
O214       Eu240   2.348   1_655  S
O215       Eu241   2.345       .  S
O215       Eu242   2.352       .  S
C216       C1365   1.483       .  S
C217       C1182   1.497       .  S
C218       C1252   1.486       .  S
C219       C1235   1.492       .  S
H220        O221   0.965       .  S
O221       Eu242   2.366       .  S
O221       Eu240   2.343   1_655  S
H222        O223   0.965       .  S
O223       Eu241   2.353       .  S
O223       Eu243   2.369       .  S
O224        C247   1.292       .  A
O224       Eu240   2.465       .  S
O225        C248   1.291       .  A
O225       Eu241   2.457       .  S
O226        C249   1.293       .  A
O226       Eu242   2.470   1_455  S
O227        C250   1.291       .  A
O227       Eu243   2.456   1_455  S
O228        C251   1.292       .  A
O228       Eu243   2.465       .  S
O229        C252   1.289       .  A
O229       Eu242   2.449       .  S
O230        C253   1.287       .  A
O230       Eu244   2.437       .  S
O231        C254   1.289       .  A
O231       Eu244   2.444       .  S
O232        C253   1.296       .  A
O232       Eu242   2.488   1_455  S
O233        C254   1.296       .  A
O233       Eu243   2.483   1_455  S
O234        C249   1.290       .  A
O234       Eu240   2.451       .  S
O235        C252   1.292       .  A
O235       Eu241   2.465       .  S
O236        C251   1.295       .  A
O236       Eu241   2.478       .  S
O237        C250   1.290       .  A
O237       Eu240   2.446       .  S
O238        C247   1.286       .  A
O238       Eu244   2.427       .  S
O239        C248   1.287   1_455  A
O239       Eu244   2.431       .  S
Eu240       O258   2.354       .  S
Eu240       O246   2.347       .  S
Eu241       O245   2.351       .  S
Eu241       O256   2.355       .  S
Eu242       O256   2.362       .  S
Eu242       O246   2.337   1_655  S
Eu243       O245   2.341       .  S
Eu243       O258   2.359   1_655  S
Eu244       O245   2.345   1_455  S
Eu244       O256   2.340   1_455  S
Eu244       O258   2.339       .  S
Eu244       O246   2.347       .  S
C247       C1285   1.483       .  S
C248       C1192   1.475       .  S
C249       C1242   1.495       .  S
C250       C1202   1.464       .  S
C251       C1222   1.481       .  S
C252       C1262   1.465       .  S
C253       C1272   1.478       .  S
C254       C1212   1.482       .  S
H255        O256   0.966       .  S
H257        O258   0.966       .  S
O259        C270   1.290       .  A
O259       Eu295   2.450       .  S
O260        C271   1.292   1_455  A
O260       Eu294   2.461       .  S
O261        C272   1.291       .  A
O261       Eu267   2.461       .  S
O262        C273   1.290       .  A
O262       Eu267   2.454       .  S
O263        C273   1.293       .  A
O263       Eu297   2.471       .  S
O264        C272   1.295       .  A
O264       Eu296   2.485       .  S
O265        C271   1.287       .  A
O265       Eu267   2.427       .  S
O266        C270   1.290       .  A
O266       Eu267   2.448       .  S
Eu267       O277   2.358       .  S
Eu267       O269   2.339       .  S
Eu267       O268   2.340       .  S
Eu267       O275   2.358       .  S
O268       Eu297   2.351       .  S
O268       Eu294   2.355   1_655  S
O269       Eu295   2.353       .  S
O269       Eu296   2.351       .  S
C270       C1535   1.483       .  S
C271       C1082   1.475       .  S
C272       C1102   1.479       .  S
C273       C1162   1.478       .  S
H274        O275   0.965       .  S
O275       Eu296   2.332       .  S
O275       Eu294   2.355   1_655  S
H276        O277   0.966       .  S
O277       Eu295   2.355       .  S
O277       Eu297   2.336       .  S
O278        C301   1.293       .  A
O278       Eu294   2.466       .  S
O279        C302   1.291       .  A
O279       Eu295   2.459       .  S
O280        C303   1.293       .  A
O280       Eu296   2.465   1_455  S
O281        C304   1.289       .  A
O281       Eu297   2.444   1_455  S
O282        C305   1.293       .  A
O282       Eu297   2.471       .  S
O283        C306   1.290       .  A
O283       Eu296   2.447       .  S
O284        C307   1.289       .  A
O284       Eu298   2.446       .  S
O285        C308   1.290       .  A
O285       Eu298   2.448       .  S
O286        C307   1.293       .  A
O286       Eu296   2.462   1_455  S
O287        C308   1.289       .  A
O287       Eu297   2.441   1_455  S
O288        C303   1.292       .  A
O288       Eu294   2.462       .  S
O289        C306   1.290       .  A
O289       Eu295   2.445       .  S
O290        C305   1.292       .  A
O290       Eu295   2.466       .  S
O291        C304   1.289       .  A
O291       Eu294   2.445       .  S
O292        C301   1.293       .  A
O292       Eu298   2.468       .  S
O293        C302   1.292   1_455  A
O293       Eu298   2.463       .  S
Eu294       O312   2.356       .  S
Eu294       O300   2.343       .  S
Eu295       O299   2.340       .  S
Eu295       O310   2.354       .  S
Eu296       O310   2.349       .  S
Eu296       O300   2.354   1_655  S
Eu297       O299   2.353       .  S
Eu297       O312   2.352   1_655  S
Eu298       O299   2.348   1_455  S
Eu298       O310   2.354   1_455  S
Eu298       O312   2.353       .  S
Eu298       O300   2.351       .  S
C301       C1302   1.498       .  S
C302       C1092   1.494       .  S
C303       C1132   1.499       .  S
C304       C1172   1.465       .  S
C305       C1152   1.503       .  S
C306       C1115   1.476       .  S
C307       C1122   1.488       .  S
C308       C1142   1.485       .  S
H309        O310   0.965       .  S
H311        O312   0.965       .  S
C313        C314   1.541       .  S
C313        C319   1.525       .  S
C313        C317   1.536       .  S
C313       C1062   1.525       .  S
C314        H321   1.085       .  S
C314        C315   1.369       .  D
C315        C316   1.538       .  S
C315       C1112   1.484       .  S
C316        C320   1.546       .  S
C316        C318   1.547       .  S
C316        H322   1.107       .  S
C317        H323   1.085       .  S
C317        C318   1.364       .  D
C318       C1225   1.483       .  S
C319        H324   1.087       .  S
C319        C320   1.358       .  D
C320       C1072   1.487       .  S
C325        C326   1.542       .  S
C325        C331   1.531       .  S
C325        C329   1.548       .  S
C325       C1042   1.537       .  S
C326        H333   1.081       .  S
C326        C327   1.361       .  D
C327        C328   1.540       .  S
C327       C1215   1.478       .  S
C328        C332   1.533       .  S
C328        C330   1.542       .  S
C328        H334   1.109       .  S
C329        H335   1.085       .  S
C329        C330   1.373       .  D
C330       C1125   1.490       .  S
C331        H336   1.087       .  S
C331        C332   1.361       .  D
C332       C1052   1.481       .  S
C337        C338   1.545   1_545  S
C337        C343   1.530       .  S
C337        C341   1.548       .  S
C337       C1432   1.536       .  S
C338        H345   1.085       .  S
C338        C339   1.371       .  D
C339        C340   1.542   1_565  S
C339       C1255   1.488       .  S
C340        C344   1.533       .  S
C340        C342   1.539       .  S
C340        H346   1.110       .  S
C341        H347   1.083       .  S
C341        C342   1.366       .  D
C342       C1165   1.482       .  S
C343        H348   1.087       .  S
C343        C344   1.357       .  D
C344       C1032   1.476   1_545  S
C349        C350   1.537       .  S
C349        C355   1.521   1_545  S
C349        C353   1.547   1_545  S
C349       C1572   1.525       .  S
C350        H357   1.085       .  S
C350        C351   1.368       .  D
C351        C352   1.550   1_545  S
C351       C1155   1.498       .  S
C352        C356   1.550       .  S
C352        C354   1.535       .  S
C352        H358   1.110       .  S
C353        H359   1.085       .  S
C353        C354   1.368       .  D
C354       C1265   1.475       .  S
C355        H360   1.087       .  S
C355        C356   1.356       .  D
C356       C1022   1.487       .  S
C361        C362   1.545       .  S
C361        C367   1.528       .  S
C361        C365   1.551       .  S
C361       C1005   1.544       .  S
C362        H369   1.085       .  S
C362        C363   1.370       .  D
C363        C364   1.534       .  S
C363       C1232   1.481       .  S
C364        C368   1.536       .  S
C364        C366   1.541       .  S
C364        H370   1.109       .  S
C365        H371   1.082       .  S
C365        C366   1.373       .  D
C366       C1105   1.500       .  S
C367        H372   1.087       .  S
C367        C368   1.359       .  D
C368       C1012   1.473       .  S
C373        C374   1.536       .  S
C373        C379   1.526       .  S
C373        C377   1.540       .  S
C373        C982   1.522       .  S
C374        H381   1.086       .  S
C374        C375   1.367       .  D
C375        C376   1.547       .  S
C375       C1135   1.487       .  S
C376        C380   1.547       .  S
C376        C378   1.535       .  S
C376        H382   1.110       .  S
C377        H383   1.082       .  S
C377        C378   1.361       .  D
C378       C1205   1.468       .  S
C379        H384   1.087       .  S
C379        C380   1.358       .  D
C380        C995   1.485       .  S
C385        C386   1.545       .  S
C385        C391   1.538       .  S
C385        C389   1.534   1_545  S
C385       C1422   1.536       .  S
C386        H393   1.077       .  S
C386        C387   1.362       .  D
C387        C388   1.530       .  S
C387       C1175   1.466       .  S
C388        C392   1.549       .  S
C388        C390   1.545   1_545  S
C388        H394   1.110       .  S
C389        H395   1.087       .  S
C389        C390   1.366       .  D
C390       C1245   1.490       .  S
C391        H396   1.086       .  S
C391        C392   1.365       .  D
C392        C972   1.499       .  S
C397        C398   1.547   1_545  S
C397        C403   1.533       .  S
C397        C401   1.545       .  S
C397       C1565   1.538       .  S
C398        H405   1.084       .  S
C398        C399   1.365       .  D
C399        C400   1.537   1_565  S
C399       C1275   1.478       .  S
C400        C404   1.531       .  S
C400        C402   1.534       .  S
C400        H406   1.111       .  S
C401        H407   1.085       .  S
C401        C402   1.370       .  D
C402       C1145   1.478       .  S
C403        H408   1.087       .  S
C403        C404   1.361       .  D
C404        C962   1.474       .  S
O409        C420   1.288       .  A
O409       Eu445   2.437       .  S
O410        C421   1.292       .  A
O410       Eu444   2.465       .  S
O411        C422   1.291       .  A
O411       Eu417   2.456       .  S
O412        C423   1.289       .  A
O412       Eu417   2.445       .  S
O413        C423   1.292       .  A
O413       Eu447   2.464       .  S
O414        C422   1.290       .  A
O414       Eu446   2.453   1_554  S
O415        C421   1.294       .  A
O415       Eu417   2.478       .  S
O416        C420   1.293   1_554  A
O416       Eu417   2.465       .  S
Eu417       O427   2.346       .  S
Eu417       O419   2.348   1_554  S
Eu417       O418   2.349       .  S
Eu417       O425   2.348       .  S
O418       Eu447   2.358       .  S
O418       Eu444   2.352       .  S
O419       Eu445   2.354       .  S
O419       Eu446   2.350       .  S
C420       C1385   1.489       .  S
C421       C1002   1.504       .  S
C422        C892   1.464       .  S
C423        C955   1.462       .  S
H424        O425   0.965       .  S
O425       Eu446   2.363   1_554  S
O425       Eu444   2.347       .  S
H426        O427   0.964       .  S
O427       Eu445   2.343   1_554  S
O427       Eu447   2.357       .  S
O428        C451   1.294       .  A
O428       Eu444   2.470       .  S
O429        C452   1.291       .  A
O429       Eu445   2.458       .  S
O430        C453   1.296       .  A
O430       Eu446   2.483   1_554  S
O431        C454   1.293       .  A
O431       Eu447   2.463       .  S
O432        C455   1.298       .  A
O432       Eu447   2.499   1_556  S
O433        C456   1.290       .  A
O433       Eu446   2.445       .  S
O434        C457   1.293       .  A
O434       Eu448   2.469       .  S
O435        C458   1.292       .  A
O435       Eu448   2.465       .  S
O436        C457   1.293       .  A
O436       Eu446   2.468       .  S
O437        C458   1.297       .  A
O437       Eu447   2.490   1_556  S
O438        C453   1.292       .  A
O438       Eu444   2.466       .  S
O439        C456   1.291       .  A
O439       Eu445   2.454       .  S
O440        C455   1.293       .  A
O440       Eu445   2.466       .  S
O441        C454   1.290       .  A
O441       Eu444   2.445       .  S
O442        C451   1.284   1_556  A
O442       Eu448   2.415       .  S
O443        C452   1.287       .  A
O443       Eu448   2.436       .  S
Eu444       O462   2.361       .  S
Eu444       O450   2.347       .  S
Eu445       O449   2.348       .  S
Eu445       O460   2.350       .  S
Eu446       O460   2.369       .  S
Eu446       O450   2.338   1_556  S
Eu447       O449   2.351   1_554  S
Eu447       O462   2.367       .  S
Eu448       O449   2.354       .  S
Eu448       O460   2.335       .  S
Eu448       O462   2.347   1_556  S
Eu448       O450   2.354   1_556  S
C451       C1325   1.486   1_554  S
C452       C1065   1.487       .  S
C453        C885   1.491       .  S
C454        C922   1.485       .  S
C455        C942   1.508       .  S
C456        C902   1.478       .  S
C457        C912   1.500       .  S
C458        C935   1.506       .  S
H459        O460   0.966       .  S
H461        O462   0.966       .  S
O463        C474   1.290       .  A
O463       Eu499   2.452       .  S
O464        C475   1.293       .  A
O464       Eu498   2.468       .  S
O465        C476   1.294       .  A
O465       Eu471   2.470       .  S
O466        C477   1.293       .  A
O466       Eu471   2.468       .  S
O467        C477   1.295       .  A
O467       Eu501   2.478   1_554  S
O468        C476   1.291       .  A
O468       Eu500   2.456   1_554  S
O469        C475   1.285       .  A
O469       Eu471   2.415       .  S
O470        C474   1.285   1_554  A
O470       Eu471   2.422       .  S
Eu471       O481   2.353   1_554  S
Eu471       O473   2.337   1_554  S
Eu471       O472   2.337       .  S
Eu471       O479   2.359       .  S
O472       Eu501   2.349   1_554  S
O472       Eu498   2.343       .  S
O473       Eu499   2.346       .  S
O473       Eu500   2.357       .  S
C474       C1402   1.476       .  S
C475        C985   1.473       .  S
C476        C825   1.496       .  S
C477        C862   1.504       .  S
H478        O479   0.965       .  S
O479       Eu500   2.340   1_554  S
O479       Eu498   2.357       .  S
H480        O481   0.965       .  S
O481       Eu499   2.352       .  S
O481       Eu501   2.338       .  S
O482        C505   1.291   1_554  A
O482       Eu498   2.457       .  S
O483        C506   1.289       .  A
O483       Eu499   2.439       .  S
O484        C507   1.294       .  A
O484       Eu500   2.472   1_554  S
O485        C508   1.290       .  A
O485       Eu501   2.447   1_554  S
O486        C509   1.292       .  A
O486       Eu501   2.463       .  S
O487        C510   1.291       .  A
O487       Eu500   2.452       .  S
O488        C511   1.288       .  A
O488       Eu502   2.442       .  S
O489        C512   1.286       .  A
O489       Eu502   2.425       .  S
O490        C511   1.290       .  A
O490       Eu500   2.454       .  S
O491        C512   1.293       .  A
O491       Eu501   2.467       .  S
O492        C507   1.292       .  A
O492       Eu498   2.461       .  S
O493        C510   1.291       .  A
O493       Eu499   2.453       .  S
O494        C509   1.291       .  A
O494       Eu499   2.456       .  S
O495        C508   1.291       .  A
O495       Eu498   2.456       .  S
O496        C505   1.294       .  A
O496       Eu502   2.473       .  S
O497        C506   1.295       .  A
O497       Eu502   2.481       .  S
Eu498       O516   2.355   1_554  S
Eu498       O504   2.347   1_554  S
Eu499       O503   2.347       .  S
Eu499       O514   2.357       .  S
Eu500       O514   2.338       .  S
Eu500       O504   2.349       .  S
Eu501       O503   2.358       .  S
Eu501       O516   2.343       .  S
Eu502       O503   2.351       .  S
Eu502       O514   2.347       .  S
Eu502       O516   2.360       .  S
Eu502       O504   2.345       .  S
C505       C1345   1.496   1_556  S
C506       C1045   1.490       .  S
C507        C815   1.487       .  S
C508        C872   1.486       .  S
C509        C855   1.482       .  S
C510        C832   1.476       .  S
C511        C805   1.461       .  S
C512        C842   1.464       .  S
H513        O514   0.965       .  S
H515        O516   0.965   1_554  S
C517        C518   1.540   1_655  S
C517        C523   1.520   1_655  S
C517        C521   1.536       .  S
C517       C1195   1.531       .  S
C518        H525   1.079       .  S
C518        C519   1.364       .  D
C519        C520   1.542       .  S
C519        C835   1.469       .  S
C520        C524   1.550       .  S
C520        C522   1.558   1_455  S
C520        H526   1.110       .  S
C521        H527   1.086       .  S
C521        C522   1.371       .  D
C522        C945   1.507       .  S
C523        H528   1.088       .  S
C523        C524   1.357       .  D
C524        C795   1.488       .  S
C529        C530   1.547       .  S
C529        C535   1.527       .  S
C529        C533   1.546   1_655  S
C529       C1095   1.534       .  S
C530        H537   1.084       .  S
C530        C531   1.374       .  D
C531        C532   1.547       .  S
C531        C932   1.503       .  S
C532        C536   1.533       .  S
C532        C534   1.532   1_655  S
C532        H538   1.110       .  S
C533        H539   1.084       .  S
C533        C534   1.365       .  D
C534        C802   1.470       .  S
C535        H540   1.087       .  S
C535        C536   1.358       .  D
C536        C782   1.478   1_655  S
C541        C542   1.531       .  S
C541        C547   1.523       .  S
C541        C545   1.539       .  S
C541       C1635   1.521       .  S
C542        H549   1.087       .  S
C542        C543   1.362       .  D
C543        C544   1.550       .  S
C543        C852   1.477       .  S
C544        C548   1.545       .  S
C544        C546   1.542       .  S
C544        H550   1.109       .  S
C545        H551   1.081       .  S
C545        C546   1.368       .  D
C546        C905   1.483       .  S
C547        H552   1.088       .  S
C547        C548   1.357       .  D
C548        C772   1.486       .  S
C553        C554   1.543       .  S
C553        C559   1.533       .  S
C553        C557   1.554       .  S
C553       C1485   1.542       .  S
C554        H561   1.086       .  S
C554        C555   1.366       .  D
C555        C556   1.535       .  S
C555        C895   1.473       .  S
C556        C560   1.538       .  S
C556        C558   1.537       .  S
C556        H562   1.111       .  S
C557        H563   1.080       .  S
C557        C558   1.372       .  D
C558        C865   1.494       .  S
C559        H564   1.087       .  S
C559        C560   1.360       .  D
C560        C762   1.486       .  S
C565        C566   1.532   1_655  S
C565        C571   1.519       .  S
C565        C569   1.541       .  S
C565       C1085   1.525       .  S
C566        H573   1.087       .  S
C566        C567   1.362       .  D
C567        C568   1.552   1_455  S
C567        C812   1.482       .  S
C568        C572   1.550       .  S
C568        C570   1.546       .  S
C568        H574   1.109       .  S
C569        H575   1.080       .  S
C569        C570   1.369       .  D
C570        C925   1.485       .  S
C571        H576   1.087       .  S
C571        C572   1.357       .  D
C572        C752   1.492       .  S
C577        C578   1.544       .  S
C577        C583   1.535       .  S
C577        C581   1.551   1_655  S
C577       C1185   1.545       .  S
C578        H585   1.086       .  S
C578        C579   1.368       .  D
C579        C580   1.536       .  S
C579        C952   1.477       .  S
C580        C584   1.532       .  S
C580        C582   1.536   1_655  S
C580        H586   1.111       .  S
C581        H587   1.079       .  S
C581        C582   1.368       .  D
C582        C822   1.487       .  S
C583        H588   1.087       .  S
C583        C584   1.363       .  D
C584        C742   1.479       .  S
C589        C590   1.543       .  S
C589        C595   1.533       .  S
C589        C593   1.540       .  S
C589       C1625   1.530       .  S
C590        H597   1.082       .  S
C590        C591   1.366       .  D
C591        C592   1.543       .  S
C591        C915   1.491       .  S
C592        C596   1.533       .  S
C592        C594   1.533       .  S
C592        H598   1.111       .  S
C593        H599   1.086       .  S
C593        C594   1.363       .  D
C594        C845   1.463       .  S
C595        H600   1.087       .  S
C595        C596   1.362       .  D
C596        C732   1.479       .  S
C601        C602   1.541       .  S
C601        C607   1.524       .  S
C601        C605   1.537       .  S
C601       C1472   1.529       .  S
C602        H609   1.081       .  S
C602        C603   1.371       .  D
C603        C604   1.546       .  S
C603        C875   1.487       .  S
C604        C608   1.550       .  S
C604        C606   1.549       .  S
C604        H610   1.109       .  S
C605        H611   1.086       .  S
C605        C606   1.363       .  D
C606        C882   1.484       .  S
C607        H612   1.087       .  S
C607        C608   1.358       .  D
C608        C725   1.493       .  S
O613        C624   1.301       .  A
O613       Eu649   2.525       .  S
O614        C625   1.296       .  A
O614       Eu648   2.496       .  S
O615        C626   1.298       .  A
O615       Eu621   2.506       .  S
O616        C627   1.293       .  A
O616       Eu621   2.480       .  S
O617        C627   1.286       .  A
O617       Eu651   2.427       .  S
O618        C626   1.283       .  A
O618       Eu650   2.405       .  S
O619        C625   1.286       .  A
O619       Eu621   2.426       .  S
O620        C624   1.284       .  A
O620       Eu621   2.416       .  S
Eu621       O631   2.355       .  S
Eu621       O623   2.343       .  S
Eu621       O622   2.362       .  S
Eu621       O629   2.351       .  S
O622       Eu651   2.367       .  S
O622       Eu648   2.367       .  S
O623       Eu649   2.340       .  S
O623       Eu650   2.356       .  S
C624       C1552   1.487       .  S
C625        C735   1.467       .  S
C626       C1075   1.482       .  S
C627       C1315   1.464       .  S
H628        O629   0.965       .  S
O629       Eu650   2.349       .  S
O629       Eu648   2.361       .  S
H630        O631   0.964       .  S
O631       Eu649   2.343       .  S
O631       Eu651   2.324       .  S
O632        C655   1.303       .  A
O632       Eu648   2.535       .  S
O633        C656   1.296       .  A
O633       Eu649   2.493       .  S
O634        C657   1.299       .  A
O634       Eu650   2.519       .  S
O635        C658   1.294       .  A
O635       Eu651   2.483       .  S
O636        C659   1.304       .  A
O636       Eu651   2.540       .  S
O637        C660   1.294       .  A
O637       Eu650   2.481       .  S
O638        C661   1.298       .  A
O638       Eu652   2.504       .  S
O639        C662   1.304       .  A
O639       Eu652   2.539       .  S
O640        C661   1.287       .  A
O640       Eu650   2.434       .  S
O641        C662   1.280       .  A
O641       Eu651   2.389       .  S
O642        C657   1.284       .  A
O642       Eu648   2.408       .  S
O643        C660   1.284       .  A
O643       Eu649   2.414       .  S
O644        C659   1.279       .  A
O644       Eu649   2.383       .  S
O645        C658   1.288       .  A
O645       Eu648   2.437       .  S
O646        C655   1.282       .  A
O646       Eu652   2.397       .  S
O647        C656   1.287       .  A
O647       Eu652   2.431       .  S
Eu648       O666   2.344       .  S
Eu648       O654   2.345       .  S
Eu649       O653   2.354       .  S
Eu649       O664   2.365       .  S
Eu650       O664   2.367       .  S
Eu650       O654   2.341       .  S
Eu651       O653   2.343       .  S
Eu651       O666   2.357       .  S
Eu652       O653   2.348       .  S
Eu652       O664   2.362       .  S
Eu652       O666   2.339       .  S
Eu652       O654   2.357       .  S
C655       C1292   1.486       .  S
C656        C765   1.471       .  S
C657        C775   1.479       .  S
C658       C1055   1.465       .  S
C659        C722   1.480       .  S
C660       C1015   1.465       .  S
C661       C1372   1.477       .  S
C662        C992   1.488       .  S
H663        O664   0.965       .  S
H665        O666   0.963       .  S
O667        C678   1.303       .  A
O667       Eu703   2.531       .  S
O668        C679   1.294       .  A
O668       Eu702   2.484   1_455  S
O669        C680   1.300       .  A
O669       Eu675   2.525       .  S
O670        C681   1.296       .  A
O670       Eu675   2.497   1_545  S
O671        C681   1.285   1_554  A
O671       Eu705   2.414       .  S
O672        C680   1.277   1_655  A
O672       Eu704   2.370       .  S
O673        C679   1.288       .  A
O673       Eu675   2.436   1_545  S
O674        C678   1.282   1_556  A
O674       Eu675   2.396       .  S
Eu675       O685   2.356   1_566  S
Eu675       O677   2.350       .  S
Eu675       O676   2.366   1_565  S
Eu675       O683   2.333   1_455  S
O676       Eu705   2.366   1_556  S
O676       Eu702   2.372   1_455  S
O677       Eu703   2.345   1_556  S
O677       Eu704   2.353   1_455  S
C678       C1412   1.484       .  S
C679        C965   1.469       .  S
C680        C792   1.473       .  S
C681       C1355   1.476       .  S
H682        O683   0.963       .  S
O683       Eu704   2.331       .  S
O683       Eu702   2.352   1_565  S
H684        O685   0.964       .  S
O685       Eu703   2.341   1_545  S
O685       Eu705   2.334       .  S
O686        C709   1.302       .  A
O686       Eu702   2.526       .  S
O687        C710   1.297       .  A
O687       Eu703   2.498   1_655  S
O688        C711   1.299       .  A
O688       Eu704   2.517       .  S
O689        C712   1.294       .  A
O689       Eu705   2.481   1_556  S
O690        C713   1.303       .  A
O690       Eu705   2.538       .  S
O691        C714   1.291       .  A
O691       Eu704   2.469   1_554  S
O692        C715   1.297       .  A
O692       Eu706   2.501   1_565  S
O693        C716   1.299       .  A
O693       Eu706   2.519       .  S
O694        C715   1.281   1_556  A
O694       Eu704   2.393       .  S
O695        C716   1.282       .  A
O695       Eu705   2.398   1_655  S
O696        C711   1.284   1_545  A
O696       Eu702   2.414       .  S
O697        C714   1.288       .  A
O697       Eu703   2.442   1_655  S
O698        C713   1.285   1_565  A
O698       Eu703   2.413       .  S
O699        C712   1.287   1_655  A
O699       Eu702   2.429       .  S
O700        C709   1.282   1_554  A
O700       Eu706   2.398       .  S
O701        C710   1.285   1_545  A
O701       Eu706   2.417       .  S
Eu702       O720   2.344   1_556  S
Eu702       O708   2.339       .  S
Eu703       O707   2.356   1_465  S
Eu703       O718   2.368   1_455  S
Eu704       O718   2.360   1_556  S
Eu704       O708   2.334   1_565  S
Eu705       O707   2.339   1_455  S
Eu705       O720   2.361   1_455  S
Eu706       O707   2.345       .  S
Eu706       O718   2.367   1_545  S
Eu706       O720   2.347       .  S
Eu706       O708   2.348   1_554  S
C709       C1335   1.486       .  S
C710       C1035   1.469       .  S
C711       C1025   1.487       .  S
C712        C785   1.463       .  S
C713        C975   1.496       .  S
C714        C745   1.465       .  S
C715       C1392   1.473       .  S
C716        C755   1.474       .  S
H717        O718   0.965       .  S
H719        O720   0.965       .  S
C721        C722   1.407       .  A
C721        C726   1.410       .  A
C721        F728   1.357       .  S
C722        C723   1.408       .  A
C723        C724   1.395       .  A
C723        F730   1.359       .  S
C724        C725   1.409       .  A
C724        F729   1.359       .  S
C725        C726   1.409       .  A
C726        F727   1.357       .  S
C731        C732   1.402       .  A
C731        C736   1.401       .  A
C731        F738   1.358       .  S
C732        C733   1.408       .  A
C733        C734   1.398       .  A
C733        F740   1.358       .  S
C734        C735   1.402       .  A
C734        F739   1.358       .  S
C735        C736   1.407       .  A
C736        F737   1.358       .  S
C741        C742   1.407       .  A
C741        C746   1.397       .  A
C741        F748   1.358       .  S
C742        C743   1.404   1_655  A
C743        C744   1.401       .  A
C743        F750   1.358       .  S
C744        C745   1.405   1_455  A
C744        F749   1.358       .  S
C745        C746   1.401       .  A
C746        F747   1.358       .  S
C751        C752   1.410       .  A
C751        C756   1.412       .  A
C751        F758   1.357       .  S
C752        C753   1.410       .  A
C753        C754   1.389       .  A
C753        F760   1.359   1_655  S
C754        C755   1.402       .  A
C754        F759   1.359   1_655  S
C755        C756   1.409       .  A
C756        F757   1.357       .  S
C761        C762   1.405       .  A
C761        C766   1.403       .  A
C761        F768   1.358       .  S
C762        C763   1.410       .  A
C763        C764   1.400       .  A
C763        F770   1.358       .  S
C764        C765   1.402       .  A
C764        F769   1.358       .  S
C765        C766   1.407       .  A
C766        F767   1.358       .  S
C771        C772   1.404       .  A
C771        C776   1.388       .  A
C771        F778   1.359       .  S
C772        C773   1.410       .  A
C773        C774   1.413       .  A
C773        F780   1.357       .  S
C774        C775   1.409       .  A
C774        F779   1.357       .  S
C775        C776   1.403       .  A
C776        F777   1.353       .  S
C781        C782   1.401   1_655  A
C781        C786   1.399       .  A
C781        F788   1.357       .  S
C782        C783   1.409       .  A
C783        C784   1.398       .  A
C783        F790   1.358       .  S
C784        C785   1.401       .  A
C784        F789   1.358       .  S
C785        C786   1.405   1_455  A
C786        F787   1.358       .  S
C791        C792   1.407   1_655  A
C791        C796   1.388       .  A
C791        F798   1.360       .  S
C792        C793   1.406       .  A
C793        C794   1.411       .  A
C793        F800   1.357       .  S
C794        C795   1.410       .  A
C794        F799   1.354       .  S
C795        C796   1.405   1_455  A
C796        F797   1.359       .  S
C801        C802   1.403       .  A
C801        C806   1.394       .  A
C801        F808   1.357       .  S
C802        C803   1.404       .  A
C803        C804   1.398       .  A
C803        F810   1.358       .  S
C804        C805   1.403       .  A
C804        F809   1.358       .  S
C805        C806   1.402       .  A
C806        F807   1.358       .  S
C811        C812   1.402       .  A
C811        C816   1.404       .  A
C811        F818   1.358       .  S
C812        C813   1.407       .  A
C813        C814   1.400       .  A
C813        F820   1.358       .  S
C814        C815   1.407       .  A
C814        F819   1.358       .  S
C815        C816   1.412       .  A
C816        F817   1.358       .  S
C821        C822   1.404       .  A
C821        C826   1.402       .  A
C821        F828   1.357       .  S
C822        C823   1.404       .  A
C823        C824   1.401       .  A
C823        F830   1.358       .  S
C824        C825   1.413       .  A
C824        F829   1.358       .  S
C825        C826   1.414       .  A
C826        F827   1.358       .  S
C831        C832   1.409       .  A
C831        C836   1.398       .  A
C831        F838   1.358       .  S
C832        C833   1.408       .  A
C833        C834   1.396       .  A
C833        F840   1.358       .  S
C834        C835   1.401       .  A
C834        F839   1.358       .  S
C835        C836   1.401       .  A
C836        F837   1.356       .  S
C841        C842   1.407       .  A
C841        C846   1.395       .  A
C841        F848   1.359       .  S
C842        C843   1.404       .  A
C843        C844   1.395       .  A
C843        F850   1.358       .  S
C844        C845   1.400       .  A
C844        F849   1.358       .  S
C845        C846   1.401       .  A
C846        F847   1.358       .  S
C851        C852   1.400       .  A
C851        C856   1.400       .  A
C851        F858   1.357       .  S
C852        C853   1.407       .  A
C853        C854   1.400       .  A
C853        F860   1.358       .  S
C854        C855   1.407       .  A
C854        F859   1.358       .  S
C855        C856   1.411       .  A
C856        F857   1.358       .  S
C861        C862   1.414       .  A
C861        C866   1.404       .  A
C861        F868   1.358       .  S
C862        C863   1.416       .  A
C863        C864   1.403       .  A
C863        F870   1.357       .  S
C864        C865   1.404       .  A
C864        F869   1.358       .  S
C865        C866   1.407       .  A
C866        F867   1.357       .  S
C871        C872   1.411       .  A
C871        C876   1.397       .  A
C871        F878   1.358       .  S
C872        C873   1.410       .  A
C873        C874   1.397       .  A
C873        F880   1.358       .  S
C874        C875   1.407       .  A
C874        F879   1.358       .  S
C875        C876   1.406       .  A
C876        F877   1.355       .  S
C881        C882   1.402       .  A
C881        C886   1.405       .  A
C881        F888   1.358       .  S
C882        C883   1.407       .  A
C883        C884   1.402       .  A
C883        F890   1.358       .  S
C884        C885   1.408       .  A
C884        F889   1.358       .  S
C885        C886   1.413       .  A
C886        F887   1.358       .  S
C891        C892   1.401       .  A
C891        C896   1.392       .  A
C891        F898   1.358       .  S
C892        C893   1.405       .  A
C893        C894   1.402       .  A
C893        F900   1.358       .  S
C894        C895   1.408       .  A
C894        F899   1.358       .  S
C895        C896   1.402       .  A
C896        F897   1.357       .  S
C901        C902   1.410       .  A
C901        C906   1.394       .  A
C901        F908   1.358       .  S
C902        C903   1.407       .  A
C903        C904   1.394       .  A
C903        F910   1.358       .  S
C904        C905   1.409       .  A
C904        F909   1.358       .  S
C905        C906   1.405       .  A
C906        F907   1.356       .  S
C911        C912   1.415       .  A
C911        C916   1.402       .  A
C911        F918   1.357       .  S
C912        C913   1.414       .  A
C913        C914   1.400       .  A
C913        F920   1.358       .  S
C914        C915   1.407       .  A
C914        F919   1.358       .  S
C915        C916   1.405       .  A
C916        F917   1.357       .  S
C921        C922   1.411       .  A
C921        C926   1.398       .  A
C921        F928   1.359       .  S
C922        C923   1.410       .  A
C923        C924   1.394       .  A
C923        F930   1.358       .  S
C924        C925   1.403       .  A
C924        F929   1.354       .  S
C925        C926   1.408       .  A
C926        F927   1.359       .  S
C931        C932   1.410       .  A
C931        C936   1.404       .  A
C931        F938   1.357       .  S
C932        C933   1.409       .  A
C933        C934   1.405       .  A
C933        F940   1.358       .  S
C934        C935   1.416       .  A
C934        F939   1.358       .  S
C935        C936   1.412       .  A
C936        F937   1.357       .  S
C941        C942   1.415       .  A
C941        C946   1.402       .  A
C941        F948   1.358       .  S
C942        C943   1.415       .  A
C943        C944   1.410       .  A
C943        F950   1.357       .  S
C944        C945   1.410       .  A
C944        F949   1.356       .  S
C945        C946   1.410       .  A
C946        F947   1.358       .  S
C951        C952   1.406       .  A
C951        C956   1.397       .  A
C951        F958   1.358       .  S
C952        C953   1.406       .  A
C953        C954   1.399       .  A
C953        F960   1.357       .  S
C954        C955   1.401       .  A
C954        F959   1.358       .  S
C955        C956   1.403       .  A
C956        F957   1.359       .  S
C961        C962   1.398   1_565  A
C961        C966   1.394       .  A
C961        F968   1.356       .  S
C962        C963   1.408       .  A
C963        C964   1.404       .  A
C963        F970   1.358       .  S
C964        C965   1.402       .  A
C964        F969   1.357       .  S
C965        C966   1.407   1_545  A
C966        F967   1.359       .  S
C971        C972   1.418       .  A
C971        C976   1.411       .  A
C971        F978   1.358       .  S
C972        C973   1.401       .  A
C973        C974   1.397       .  A
C973        F980   1.357   1_545  S
C974        C975   1.414       .  A
C974        F979   1.357   1_545  S
C975        C976   1.406       .  A
C976        F977   1.356       .  S
C981        C982   1.414       .  A
C981        C986   1.389       .  A
C981        F988   1.355       .  S
C982        C983   1.417       .  A
C983        C984   1.395       .  A
C983        F990   1.358       .  S
C984        C985   1.400       .  A
C984        F989   1.358       .  S
C985        C986   1.408       .  A
C986        F987   1.359       .  S
C991        C992   1.402       .  A
C991        C996   1.405       .  A
C991        F998   1.357       .  S
C992        C993   1.419       .  A
C993        C994   1.394       .  A
C993       F1000   1.358       .  S
C994        C995   1.397       .  A
C994        F999   1.358       .  S
C995        C996   1.415       .  A
C996        F997   1.358       .  S
C1001      C1002   1.411       .  A
C1001      C1006   1.405       .  A
C1001      F1008   1.358       .  S
C1002      C1003   1.413       .  A
C1003      C1004   1.401       .  A
C1003      F1010   1.358       .  S
C1004      C1005   1.414       .  A
C1004      F1009   1.355       .  S
C1005      C1006   1.416       .  A
C1006      F1007   1.358       .  S
C1011      C1012   1.399       .  A
C1011      C1016   1.394       .  A
C1011      F1018   1.357       .  S
C1012      C1013   1.409       .  A
C1013      C1014   1.402       .  A
C1013      F1020   1.358       .  S
C1014      C1015   1.402       .  A
C1014      F1019   1.358       .  S
C1015      C1016   1.406       .  A
C1016      F1017   1.359       .  S
C1021      C1022   1.417       .  A
C1021      C1026   1.406       .  A
C1021      F1028   1.358       .  S
C1022      C1023   1.396   1_565  A
C1023      C1024   1.394       .  A
C1023      F1030   1.357       .  S
C1024      C1025   1.416   1_545  A
C1024      F1029   1.357       .  S
C1025      C1026   1.403       .  A
C1026      F1027   1.357       .  S
C1031      C1032   1.407       .  A
C1031      C1036   1.402       .  A
C1031      F1038   1.358       .  S
C1032      C1033   1.400   1_565  A
C1033      C1034   1.397       .  A
C1033      F1040   1.355       .  S
C1034      C1035   1.407   1_545  A
C1034      F1039   1.359       .  S
C1035      C1036   1.402       .  A
C1036      F1037   1.357       .  S
C1041      C1042   1.418       .  A
C1041      C1046   1.399       .  A
C1041      F1048   1.354       .  S
C1042      C1043   1.414       .  A
C1043      C1044   1.398       .  A
C1043      F1050   1.358       .  S
C1044      C1045   1.405       .  A
C1044      F1049   1.357       .  S
C1045      C1046   1.411       .  A
C1046      F1047   1.359       .  S
C1051      C1052   1.408       .  A
C1051      C1056   1.395       .  A
C1051      F1058   1.358       .  S
C1052      C1053   1.404       .  A
C1053      C1054   1.403       .  A
C1053      F1060   1.358       .  S
C1054      C1055   1.408       .  A
C1054      F1059   1.358       .  S
C1055      C1056   1.398       .  A
C1056      F1057   1.358       .  S
C1061      C1062   1.415       .  A
C1061      C1066   1.397       .  A
C1061      F1068   1.356       .  S
C1062      C1063   1.412       .  A
C1063      C1064   1.392       .  A
C1063      F1070   1.358       .  S
C1064      C1065   1.410       .  A
C1064      F1069   1.358       .  S
C1065      C1066   1.408       .  A
C1066      F1067   1.358       .  S
C1071      C1072   1.398       .  A
C1071      C1076   1.391       .  A
C1071      F1078   1.357       .  S
C1072      C1073   1.417       .  A
C1073      C1074   1.405       .  A
C1073      F1080   1.358       .  S
C1074      C1075   1.402       .  A
C1074      F1079   1.358       .  S
C1075      C1076   1.413       .  A
C1076      F1077   1.356       .  S
C1081      C1082   1.401   1_455  A
C1081      C1086   1.396       .  A
C1081      F1088   1.358       .  S
C1082      C1083   1.408       .  A
C1083      C1084   1.389       .  A
C1083      F1090   1.359       .  S
C1084      C1085   1.411       .  A
C1084      F1089   1.353       .  S
C1085      C1086   1.420   1_655  A
C1086      F1087   1.359       .  S
C1091      C1092   1.410       .  A
C1091      C1096   1.400       .  A
C1091      F1098   1.358       .  S
C1092      C1093   1.409   1_655  A
C1093      C1094   1.398       .  A
C1093      F1100   1.358       .  S
C1094      C1095   1.416   1_455  A
C1094      F1099   1.357       .  S
C1095      C1096   1.414       .  A
C1096      F1097   1.357       .  S
C1101      C1102   1.404       .  A
C1101      C1106   1.404       .  A
C1101      F1108   1.358       .  S
C1102      C1103   1.403       .  A
C1103      C1104   1.404       .  A
C1103      F1110   1.358       .  S
C1104      C1105   1.410       .  A
C1104      F1109   1.356       .  S
C1105      C1106   1.414       .  A
C1106      F1107   1.358       .  S
C1111      C1112   1.409       .  A
C1111      C1116   1.395       .  A
C1111      F1118   1.358       .  S
C1112      C1113   1.408       .  A
C1113      C1114   1.393       .  A
C1113      F1120   1.356       .  S
C1114      C1115   1.407       .  A
C1114      F1119   1.358       .  S
C1115      C1116   1.407       .  A
C1116      F1117   1.358       .  S
C1121      C1122   1.413       .  A
C1121      C1126   1.403       .  A
C1121      F1128   1.358       .  S
C1122      C1123   1.407       .  A
C1123      C1124   1.391       .  A
C1123      F1130   1.358       .  S
C1124      C1125   1.406       .  A
C1124      F1129   1.354       .  S
C1125      C1126   1.409       .  A
C1126      F1127   1.358       .  S
C1131      C1132   1.415       .  A
C1131      C1136   1.400       .  A
C1131      F1138   1.358       .  S
C1132      C1133   1.415       .  A
C1133      C1134   1.402       .  A
C1133      F1140   1.358       .  S
C1134      C1135   1.404       .  A
C1134      F1139   1.356       .  S
C1135      C1136   1.404       .  A
C1136      F1137   1.358       .  S
C1141      C1142   1.412       .  A
C1141      C1146   1.394       .  A
C1141      F1148   1.358       .  S
C1142      C1143   1.412       .  A
C1143      C1144   1.395       .  A
C1143      F1150   1.358       .  S
C1144      C1145   1.404       .  A
C1144      F1149   1.358       .  S
C1145      C1146   1.404       .  A
C1146      F1147   1.355       .  S
C1151      C1152   1.415       .  A
C1151      C1156   1.407       .  A
C1151      F1158   1.358       .  S
C1152      C1153   1.414       .  A
C1153      C1154   1.399       .  A
C1153      F1160   1.358       .  S
C1154      C1155   1.406       .  A
C1154      F1159   1.358       .  S
C1155      C1156   1.409       .  A
C1156      F1157   1.357       .  S
C1161      C1162   1.405       .  A
C1161      C1166   1.401       .  A
C1161      F1168   1.358       .  S
C1162      C1163   1.408       .  A
C1163      C1164   1.402       .  A
C1163      F1170   1.358       .  S
C1164      C1165   1.404       .  A
C1164      F1169   1.355       .  S
C1165      C1166   1.405       .  A
C1166      F1167   1.357       .  S
C1171      C1172   1.405       .  A
C1171      C1176   1.393       .  A
C1171      F1178   1.359       .  S
C1172      C1173   1.406       .  A
C1173      C1174   1.397       .  A
C1173      F1180   1.358       .  S
C1174      C1175   1.400       .  A
C1174      F1179   1.358       .  S
C1175      C1176   1.403       .  A
C1176      F1177   1.358       .  S
C1181      C1182   1.410   1_455  A
C1181      C1186   1.399       .  A
C1181      F1188   1.358       .  S
C1182      C1183   1.409       .  A
C1183      C1184   1.404       .  A
C1183      F1190   1.358       .  S
C1184      C1185   1.418       .  A
C1184      F1189   1.358       .  S
C1185      C1186   1.416   1_655  A
C1186      F1187   1.352       .  S
C1191      C1192   1.406   1_455  A
C1191      C1196   1.393       .  A
C1191      F1198   1.359       .  S
C1192      C1193   1.400       .  A
C1193      C1194   1.396       .  A
C1193      F1200   1.358       .  S
C1194      C1195   1.419       .  A
C1194      F1199   1.359       .  S
C1195      C1196   1.414   1_655  A
C1196      F1197   1.352       .  S
C1201      C1202   1.403       .  A
C1201      C1206   1.396       .  A
C1201      F1208   1.358       .  S
C1202      C1203   1.405       .  A
C1203      C1204   1.396       .  A
C1203      F1210   1.358       .  S
C1204      C1205   1.401       .  A
C1204      F1209   1.358       .  S
C1205      C1206   1.404       .  A
C1206      F1207   1.358       .  S
C1211      C1212   1.411       .  A
C1211      C1216   1.401       .  A
C1211      F1218   1.358       .  S
C1212      C1213   1.406       .  A
C1213      C1214   1.400       .  A
C1213      F1220   1.358       .  S
C1214      C1215   1.405       .  A
C1214      F1219   1.357       .  S
C1215      C1216   1.401       .  A
C1216      F1217   1.358       .  S
C1221      C1222   1.409       .  A
C1221      C1226   1.403       .  A
C1221      F1228   1.358       .  S
C1222      C1223   1.406       .  A
C1223      C1224   1.401       .  A
C1223      F1230   1.358       .  S
C1224      C1225   1.408       .  A
C1224      F1229   1.358       .  S
C1225      C1226   1.402       .  A
C1226      F1227   1.357       .  S
C1231      C1232   1.403       .  A
C1231      C1236   1.396       .  A
C1231      F1238   1.358       .  S
C1232      C1233   1.405       .  A
C1233      C1234   1.398       .  A
C1233      F1240   1.358       .  S
C1234      C1235   1.414       .  A
C1234      F1239   1.358       .  S
C1235      C1236   1.413       .  A
C1236      F1237   1.357       .  S
C1241      C1242   1.413       .  A
C1241      C1246   1.403       .  A
C1241      F1248   1.358       .  S
C1242      C1243   1.414       .  A
C1243      C1244   1.396       .  A
C1243      F1250   1.358       .  S
C1244      C1245   1.404       .  A
C1244      F1249   1.358       .  S
C1245      C1246   1.407       .  A
C1246      F1247   1.356       .  S
C1251      C1252   1.411       .  A
C1251      C1256   1.399       .  A
C1251      F1258   1.358       .  S
C1252      C1253   1.411       .  A
C1253      C1254   1.394       .  A
C1253      F1260   1.358       .  S
C1254      C1255   1.406       .  A
C1254      F1259   1.356       .  S
C1255      C1256   1.409       .  A
C1256      F1257   1.358       .  S
C1261      C1262   1.402       .  A
C1261      C1266   1.396       .  A
C1261      F1268   1.358       .  S
C1262      C1263   1.404       .  A
C1263      C1264   1.400       .  A
C1263      F1270   1.358       .  S
C1264      C1265   1.406       .  A
C1264      F1269   1.358       .  S
C1265      C1266   1.404       .  A
C1266      F1267   1.358       .  S
C1271      C1272   1.410       .  A
C1271      C1276   1.400       .  A
C1271      F1278   1.359       .  S
C1272      C1273   1.404       .  A
C1273      C1274   1.400       .  A
C1273      F1280   1.357       .  S
C1274      C1275   1.405       .  A
C1274      F1279   1.358       .  S
C1275      C1276   1.402       .  A
C1276      F1277   1.357       .  S
C1281      C1282   1.413       .  A
C1281      C1286   1.393       .  A
C1281      F1288   1.354       .  S
C1282      C1283   1.417       .  A
C1283      C1284   1.397       .  A
C1283      F1290   1.358       .  S
C1284      C1285   1.403       .  A
C1284      F1289   1.358       .  S
C1285      C1286   1.410       .  A
C1286      F1287   1.359       .  S
C1291      C1292   1.408       .  A
C1291      C1296   1.392       .  A
C1291      F1298   1.359       .  S
C1292      C1293   1.410       .  A
C1293      C1294   1.410       .  A
C1293      F1300   1.351       .  S
C1294      C1295   1.406       .  A
C1294      F1299   1.358       .  S
C1295      C1296   1.405       .  A
C1296      F1297   1.358       .  S
C1301      C1302   1.410       .  A
C1301      C1306   1.401       .  A
C1301      F1308   1.358       .  S
C1302      C1303   1.409       .  A
C1303      C1304   1.402       .  A
C1303      F1310   1.358       .  S
C1304      C1305   1.416       .  A
C1304      F1309   1.358       .  S
C1305      C1306   1.416       .  A
C1306      F1307   1.354       .  S
C1311      C1312   1.409       .  A
C1311      C1316   1.401       .  A
C1311      F1318   1.358       .  S
C1312      C1313   1.398       .  A
C1313      C1314   1.394       .  A
C1313      F1320   1.358       .  S
C1314      C1315   1.405       .  A
C1314      F1319   1.359       .  S
C1315      C1316   1.403       .  A
C1316      F1317   1.358       .  S
C1321      C1322   1.410       .  A
C1321      C1326   1.393       .  A
C1321      F1328   1.358       .  S
C1322      C1323   1.418   1_556  A
C1323      C1324   1.396       .  A
C1323      F1330   1.355       .  S
C1324      C1325   1.405   1_554  A
C1324      F1329   1.358       .  S
C1325      C1326   1.412       .  A
C1326      F1327   1.359       .  S
C1331      C1332   1.401       .  A
C1331      C1336   1.395       .  A
C1331      F1338   1.358   1_556  S
C1332      C1333   1.417       .  A
C1333      C1334   1.406       .  A
C1333      F1340   1.358       .  S
C1334      C1335   1.401       .  A
C1334      F1339   1.357       .  S
C1335      C1336   1.414       .  A
C1336      F1337   1.357   1_556  S
C1341      C1342   1.416   1_556  A
C1341      C1346   1.401       .  A
C1341      F1348   1.357       .  S
C1342      C1343   1.412       .  A
C1343      C1344   1.400       .  A
C1343      F1350   1.357       .  S
C1344      C1345   1.412       .  A
C1344      F1349   1.358       .  S
C1345      C1346   1.410   1_554  A
C1346      F1347   1.358       .  S
C1351      C1352   1.406   1_556  A
C1351      C1356   1.404       .  A
C1351      F1358   1.357       .  S
C1352      C1353   1.396       .  A
C1353      C1354   1.390       .  A
C1353      F1360   1.359       .  S
C1354      C1355   1.411   1_554  A
C1354      F1359   1.357       .  S
C1355      C1356   1.404       .  A
C1356      F1357   1.357       .  S
C1361      C1362   1.414       .  A
C1361      C1366   1.398       .  A
C1361      F1368   1.353       .  S
C1362      C1363   1.418       .  A
C1363      C1364   1.398       .  A
C1363      F1370   1.359       .  S
C1364      C1365   1.403       .  A
C1364      F1369   1.358       .  S
C1365      C1366   1.408       .  A
C1366      F1367   1.359       .  S
C1371      C1372   1.402       .  A
C1371      C1376   1.399       .  A
C1371      F1378   1.358       .  S
C1372      C1373   1.407       .  A
C1373      C1374   1.408       .  A
C1373      F1380   1.358       .  S
C1374      C1375   1.408       .  A
C1374      F1379   1.356       .  S
C1375      C1376   1.412       .  A
C1376      F1377   1.358       .  S
C1381      C1382   1.412   1_554  A
C1381      C1386   1.398       .  A
C1381      F1388   1.357       .  S
C1382      C1383   1.416       .  A
C1383      C1384   1.397       .  A
C1383      F1390   1.355       .  S
C1384      C1385   1.410       .  A
C1384      F1389   1.359       .  S
C1385      C1386   1.407   1_556  A
C1386      F1387   1.358       .  S
C1391      C1392   1.412   1_556  A
C1391      C1396   1.391       .  A
C1391      F1398   1.359       .  S
C1392      C1393   1.403       .  A
C1393      C1394   1.404       .  A
C1393      F1400   1.357       .  S
C1394      C1395   1.407       .  A
C1394      F1399   1.357       .  S
C1395      C1396   1.396   1_554  A
C1396      F1397   1.358       .  S
C1401      C1402   1.405       .  A
C1401      C1406   1.393       .  A
C1401      F1408   1.358       .  S
C1402      C1403   1.409   1_556  A
C1403      C1404   1.387       .  A
C1403      F1410   1.359       .  S
C1404      C1405   1.409       .  A
C1404      F1409   1.357       .  S
C1405      C1406   1.416   1_554  A
C1406      F1407   1.357       .  S
C1411      C1412   1.416       .  A
C1411      C1416   1.395       .  A
C1411      F1418   1.357   1_554  S
C1412      C1413   1.400       .  A
C1413      C1414   1.403       .  A
C1413      F1420   1.357       .  S
C1414      C1415   1.416       .  A
C1414      F1419   1.358       .  S
C1415      C1416   1.399       .  A
C1416      F1417   1.357   1_554  S
C1421      C1422   1.418   1_565  A
C1421      C1426   1.397       .  A
C1421      F1428   1.358       .  S
C1422      C1423   1.417       .  A
C1423      C1424   1.396       .  A
C1423      F1430   1.351       .  S
C1424      C1425   1.406       .  A
C1424      F1429   1.359       .  S
C1425      C1426   1.400   1_545  A
C1426      F1427   1.358       .  S
C1431      C1432   1.415   1_565  A
C1431      C1436   1.399       .  A
C1431      F1438   1.358       .  S
C1432      C1433   1.415       .  A
C1433      C1434   1.399       .  A
C1433      F1440   1.355       .  S
C1434      C1435   1.411       .  A
C1434      F1439   1.358       .  S
C1435      C1436   1.407   1_545  A
C1436      F1437   1.358       .  S
C1441      C1442   1.401       .  A
C1441      C1446   1.402       .  A
C1441      F1448   1.358       .  S
C1442      C1443   1.407       .  A
C1443      C1444   1.400       .  A
C1443      F1450   1.358       .  S
C1444      C1445   1.404       .  A
C1444      F1449   1.358       .  S
C1445      C1446   1.410       .  A
C1446      F1447   1.358       .  S
C1451      C1452   1.410       .  A
C1451      C1456   1.398       .  A
C1451      F1458   1.357       .  S
C1452      C1453   1.404       .  A
C1453      C1454   1.394       .  A
C1453      F1460   1.357       .  S
C1454      C1455   1.411       .  A
C1454      F1459   1.358       .  S
C1455      C1456   1.408       .  A
C1456      F1457   1.358       .  S
C1461      C1462   1.415       .  A
C1461      C1466   1.407       .  A
C1461      F1468   1.358       .  S
C1462      C1463   1.416       .  A
C1463      C1464   1.401       .  A
C1463      F1470   1.357       .  S
C1464      C1465   1.405       .  A
C1464      F1469   1.358       .  S
C1465      C1466   1.409       .  A
C1466      F1467   1.358       .  S
C1471      C1472   1.415       .  A
C1471      C1476   1.395       .  A
C1471      F1478   1.354       .  S
C1472      C1473   1.417       .  A
C1473      C1474   1.394       .  A
C1473      F1480   1.358       .  S
C1474      C1475   1.401       .  A
C1474      F1479   1.358       .  S
C1475      C1476   1.409       .  A
C1476      F1477   1.359       .  S
C1481      C1482   1.412       .  A
C1481      C1486   1.398       .  A
C1481      F1488   1.358       .  S
C1482      C1483   1.407       .  A
C1483      C1484   1.402       .  A
C1483      F1490   1.358       .  S
C1484      C1485   1.419       .  A
C1484      F1489   1.358       .  S
C1485      C1486   1.414       .  A
C1486      F1487   1.353       .  S
C1491      C1492   1.408       .  A
C1491      C1496   1.405       .  A
C1491      F1498   1.356       .  S
C1492      C1493   1.407       .  A
C1493      C1494   1.395       .  A
C1493      F1500   1.359       .  S
C1494      C1495   1.413       .  A
C1494      F1499   1.358       .  S
C1495      C1496   1.414       .  A
C1496      F1497   1.358       .  S
C1501      C1502   1.417       .  A
C1501      C1506   1.401       .  A
C1501      F1508   1.358       .  S
C1502      C1503   1.414       .  A
C1503      C1504   1.401       .  A
C1503      F1510   1.358       .  S
C1504      C1505   1.404       .  A
C1504      F1509   1.358       .  S
C1505      C1506   1.402       .  A
C1506      F1507   1.358       .  S
C1511      C1512   1.403       .  A
C1511      C1516   1.396       .  A
C1511      F1518   1.358       .  S
C1512      C1513   1.401       .  A
C1513      C1514   1.393       .  A
C1513      F1520   1.356       .  S
C1514      C1515   1.412       .  A
C1514      F1519   1.358       .  S
C1515      C1516   1.413       .  A
C1516      F1517   1.358       .  S
C1521      C1522   1.405       .  A
C1521      C1526   1.401       .  A
C1521      F1528   1.358       .  S
C1522      C1523   1.404       .  A
C1523      C1524   1.403       .  A
C1523      F1530   1.358       .  S
C1524      C1525   1.407       .  A
C1524      F1529   1.358       .  S
C1525      C1526   1.406       .  A
C1526      F1527   1.357       .  S
C1531      C1532   1.418       .  A
C1531      C1536   1.397       .  A
C1531      F1538   1.353       .  S
C1532      C1533   1.413       .  A
C1533      C1534   1.392       .  A
C1533      F1540   1.359       .  S
C1534      C1535   1.406       .  A
C1534      F1539   1.358       .  S
C1535      C1536   1.408       .  A
C1536      F1537   1.359       .  S
C1541      C1542   1.405       .  A
C1541      C1546   1.400       .  A
C1541      F1548   1.358       .  S
C1542      C1543   1.407       .  A
C1543      C1544   1.405       .  A
C1543      F1550   1.358       .  S
C1544      C1545   1.408       .  A
C1544      F1549   1.358       .  S
C1545      C1546   1.403       .  A
C1546      F1547   1.357       .  S
C1551      C1552   1.416       .  A
C1551      C1556   1.396       .  A
C1551      F1558   1.357       .  S
C1552      C1553   1.402       .  A
C1553      C1554   1.405       .  A
C1553      F1560   1.357       .  S
C1554      C1555   1.417       .  A
C1554      F1559   1.358       .  S
C1555      C1556   1.398       .  A
C1556      F1557   1.358       .  S
C1561      C1562   1.410   1_565  A
C1561      C1566   1.399       .  A
C1561      F1568   1.358       .  S
C1562      C1563   1.410       .  A
C1563      C1564   1.402       .  A
C1563      F1570   1.358       .  S
C1564      C1565   1.416       .  A
C1564      F1569   1.357       .  S
C1565      C1566   1.414   1_545  A
C1566      F1567   1.356       .  S
C1571      C1572   1.416       .  A
C1571      C1576   1.399       .  A
C1571      F1578   1.357       .  S
C1572      C1573   1.409   1_545  A
C1573      C1574   1.393       .  A
C1573      F1580   1.357       .  S
C1574      C1575   1.412   1_565  A
C1574      F1579   1.358       .  S
C1575      C1576   1.407       .  A
C1576      F1577   1.358       .  S
C1581      C1582   1.405       .  A
C1581      C1586   1.399       .  A
C1581      F1588   1.357       .  S
C1582      C1583   1.406       .  A
C1583      C1584   1.394       .  A
C1583      F1590   1.356       .  S
C1584      C1585   1.400       .  A
C1584      F1589   1.358       .  S
C1585      C1586   1.402       .  A
C1586      F1587   1.358       .  S
C1591      C1592   1.416       .  A
C1591      C1596   1.406       .  A
C1591      F1598   1.357       .  S
C1592      C1593   1.413       .  A
C1593      C1594   1.399       .  A
C1593      F1600   1.358       .  S
C1594      C1595   1.409       .  A
C1594      F1599   1.359       .  S
C1595      C1596   1.405       .  A
C1596      F1597   1.357       .  S
C1601      C1602   1.408       .  A
C1601      C1606   1.401       .  A
C1601      F1608   1.358       .  S
C1602      C1603   1.402       .  A
C1603      C1604   1.402       .  A
C1603      F1610   1.356       .  S
C1604      C1605   1.408       .  A
C1604      F1609   1.358       .  S
C1605      C1606   1.402       .  A
C1606      F1607   1.358       .  S
C1611      C1612   1.413       .  A
C1611      C1616   1.404       .  A
C1611      F1618   1.358       .  S
C1612      C1613   1.412       .  A
C1613      C1614   1.399       .  A
C1613      F1620   1.358       .  S
C1614      C1615   1.407       .  A
C1614      F1619   1.358       .  S
C1615      C1616   1.408       .  A
C1616      F1617   1.357       .  S
C1621      C1622   1.408       .  A
C1621      C1626   1.394       .  A
C1621      F1628   1.358       .  S
C1622      C1623   1.409       .  A
C1623      C1624   1.397       .  A
C1623      F1630   1.358       .  S
C1624      C1625   1.414       .  A
C1624      F1629   1.358       .  S
C1625      C1626   1.414       .  A
C1626      F1627   1.354       .  S
C1631      C1632   1.403       .  A
C1631      C1636   1.394       .  A
C1631      F1638   1.358       .  S
C1632      C1633   1.406       .  A
C1633      C1634   1.388       .  A
C1633      F1640   1.359       .  S
C1634      C1635   1.413       .  A
C1634      F1639   1.354       .  S
C1635      C1636   1.417       .  A
C1636      F1637   1.358       .  S
C1641      C1642   1.403       .  A
C1641      C1646   1.401       .  A
C1641      F1648   1.358       .  S
C1642      C1643   1.402       .  A
C1643      C1644   1.398       .  A
C1643      F1650   1.358       .  S
C1644      C1645   1.415       .  A
C1644      F1649   1.358       .  S
C1645      C1646   1.415       .  A
C1646      F1647   1.358       .  S
C1651      C1652   1.407       .  A
C1651      C1656   1.395       .  A
C1651      F1658   1.359       .  S
C1652      C1653   1.401       .  A
C1653      C1654   1.399       .  A
C1653      F1660   1.357       .  S
C1654      C1655   1.406       .  A
C1654      F1659   1.358       .  S
C1655      C1656   1.402       .  A
C1656      F1657   1.359       .  S
C1661      C1662   1.402       .  A
C1661      C1666   1.400       .  A
C1661      F1668   1.358       .  S
C1662      C1663   1.406       .  A
C1663      C1664   1.401       .  A
C1663      F1670   1.358       .  S
C1664      C1665   1.404       .  A
C1664      F1669   1.357       .  S
C1665      C1666   1.408       .  A
C1666      F1667   1.358       .  S
C1671      C1672   1.408       .  A
C1671      C1676   1.399       .  A
C1671      F1678   1.358       .  S
C1672      C1673   1.408       .  A
C1673      C1674   1.401       .  A
C1673      F1680   1.358       .  S
C1674      C1675   1.404       .  A
C1674      F1679   1.358       .  S
C1675      C1676   1.401       .  A
C1676      F1677   1.358       .  S
