geometry optimzed in LAMMPS
_audit_creation_date              2020-11-30 
_audit_creation_method            'lammps2cif' 
_symmetry_space_group_name_H-M    'P1' 
_symmetry_Int_Tables_number       1 
_symmetry_cell_setting            triclinic 
loop_ 
_symmetry_equiv_pos_as_xyz 
  x,y,z 
_cell_length_a                    36.15595932 
_cell_length_b                    35.99197113458728 
_cell_length_c                    36.68549811218179 
_cell_angle_alpha                 89.76235705860014 
_cell_angle_beta                  90.36360443881797 
_cell_angle_gamma                 90.03906223435602 
loop_ 
_atom_site_label 
_atom_site_type_symbol 
_atom_site_fract_x 
_atom_site_fract_y 
_atom_site_fract_z 
_atom_site_charge 
O1          O  0.65499232  0.50954318  0.94347624    -0.57800
C2          C  0.62856035  0.51802017  0.08207564     0.74800
O3          O  0.60759855  0.59300287  0.00822841    -0.59000
C4          C  0.62525125  0.51808387  0.92608889     0.74800
C5          C  0.57444548  0.47827268  0.00405578     0.77200
Cd6        Cd  0.62963935  0.53092860  0.00401003     1.37500
O7          O  0.65972428  0.51353542  0.06615034    -0.57800
O8          O  0.60827874  0.46807360  0.00270954    -0.56600
C9          C  0.63857734  0.60926966  0.00529307     0.77200
O10         O  0.56790528  0.51296393  0.00531166    -0.59000
O11         O  0.60174412  0.52695638  0.06181144    -0.57400
O12         O  0.60002097  0.53376726  0.94428637    -0.57400
O13         O  0.66718249  0.58907956  0.00170532    -0.56600
O14         O  0.43966079  0.73159777  0.94019216    -0.57800
C15         C  0.44880904  0.70408772  0.07439056     0.74800
O16         O  0.44059847  0.63889311  0.00202819    -0.59000
C17         C  0.44401986  0.70170180  0.92187460     0.74800
C18         C  0.54155420  0.70346953  0.99772673     0.77200
Cd19       Cd  0.46301009  0.70044726  0.99806985     1.37500
O20         O  0.44303255  0.73329836  0.05502013    -0.57800
O21         O  0.52354752  0.73379547  0.99870302    -0.56600
C22         C  0.40696162  0.64846989  0.00573298     0.77200
O23         O  0.52318748  0.67345047  0.99650836    -0.59000
O24         O  0.46348871  0.67657689  0.05872263    -0.57400
O25         O  0.45808055  0.67426422  0.93860806    -0.57400
O26         O  0.39966368  0.68308108  0.00423873    -0.56600
O27         O  0.42470231  0.28993729  0.06901930    -0.57800
C28         C  0.41610335  0.31978791  0.93374654     0.74800
O29         O  0.33969029  0.34259237  0.01344658    -0.59000
C30         C  0.41883824  0.31976028  0.08709636     0.74800
C31         C  0.45845063  0.36890365  0.01248177     0.77200
Cd32       Cd  0.40092775  0.31969378  0.01104555     1.37500
O33         O  0.42116424  0.29010175  0.95254424    -0.57800
O34         O  0.46397095  0.33400246  0.01237088    -0.56600
C35         C  0.32359096  0.31121210  0.01432361     0.77200
O36         O  0.42493645  0.38027353  0.01213252    -0.59000
O37         O  0.40233042  0.34733933  0.95030114    -0.57400
O38         O  0.40272361  0.34618995  0.07045078    -0.57400
O39         O  0.34355387  0.28213541  0.01306339    -0.56600
O40         O  0.20948907  0.50469932  0.93989447    -0.57800
C41         C  0.23629322  0.50094898  0.07569919     0.74800
O42         O  0.26179593  0.42260314  0.00122147    -0.59000
C43         C  0.23935903  0.49896849  0.92214514     0.74800
C44         C  0.29046091  0.54025690  0.00573261     0.77200
Cd45       Cd  0.23870515  0.48431664  0.99954713     1.37500
O46         O  0.20762953  0.50846583  0.05624951    -0.57800
O47         O  0.25599218  0.54723513  0.00484779    -0.56600
C48         C  0.23076750  0.40631590  0.00397871     0.77200
O49         O  0.30037611  0.50636448  0.00256600    -0.59000
O50         O  0.26239056  0.48367270  0.06025819    -0.57400
O51         O  0.26647552  0.48582622  0.94001843    -0.57400
O52         O  0.20174183  0.42629271  0.00360296    -0.56600
O53         O  0.41460389  0.95476446  0.71265407    -0.57800
C54         C  0.41264849  0.09061268  0.68955397     0.74800
O55         O  0.41475061  0.01966499  0.62020430    -0.59000
C56         C  0.41003145  0.93543458  0.68375059     0.74800
C57         C  0.31633966  0.01223759  0.68736050     0.77200
Cd58       Cd  0.39429316  0.01367443  0.68159677     1.37500
O59         O  0.41792642  0.06902324  0.71697192    -0.57800
O60         O  0.33575281  0.01142863  0.71634595    -0.56600
C61         C  0.44883031  0.01983487  0.62958803     0.77200
O62         O  0.33314515  0.01452959  0.65716412    -0.59000
O63         O  0.39716622  0.07660086  0.66182546    -0.57400
O64         O  0.39780568  0.95226796  0.65579976    -0.57400
O65         O  0.45631020  0.01576796  0.66322328    -0.56600
O66         O  0.64853322  0.95033884  0.49921933    -0.57800
C67         C  0.61955375  0.08570956  0.49175800     0.74800
O68         O  0.60298269  0.00663447  0.41230900    -0.59000
C69         C  0.61972140  0.93108695  0.49149858     0.74800
C70         C  0.56233856  0.01358891  0.52137283     0.77200
Cd71       Cd  0.62054126  0.00851217  0.47417244     1.37500
O72         O  0.64878711  0.06710597  0.49967467    -0.57800
O73         O  0.59552140  0.01033992  0.53300594    -0.56600
C74         C  0.63520521  0.00604707  0.39881131     0.77200
O75         O  0.55700676  0.01233732  0.48703831    -0.59000
O76         O  0.59457993  0.06911819  0.47389157    -0.57400
O77         O  0.59343621  0.94758378  0.47523851    -0.57400
O78         O  0.66263476  0.00784788  0.42060425    -0.56600
O79         O  0.43820881  0.06695923  0.28939850    -0.57800
C80         C  0.44709019  0.93034471  0.31628464     0.74800
O81         O  0.52237627  0.00702535  0.34378524    -0.59000
C82         C  0.44359469  0.08641121  0.31810770     0.74800
C83         C  0.40421383  0.00376210  0.37089238     0.77200
Cd84       Cd  0.46057126  0.00851092  0.32075855     1.37500
O85         O  0.44001626  0.95081610  0.28841480    -0.57800
O86         O  0.39740215  0.00373509  0.33677709    -0.56600
C87         C  0.53831038  0.00702010  0.31301183     0.77200
O88         O  0.43776669  0.00680310  0.38135115    -0.59000
O89         O  0.46175943  0.94603039  0.34366708    -0.57400
O90         O  0.45804521  0.07001183  0.34532392    -0.57400
O91         O  0.51812951  0.00929373  0.28456768    -0.56600
O92         O  0.20806454  0.06265851  0.50693353    -0.57800
C93         C  0.23720814  0.92341390  0.50887234     0.74800
O94         O  0.29489733  0.00271431  0.50704708    -0.59000
C95         C  0.23850275  0.07918345  0.51487444     0.74800
C96         C  0.21866034  0.00064148  0.60149285     0.77200
Cd97       Cd  0.23361408  0.00071805  0.52620546     1.37500
O98         O  0.20767389  0.94145958  0.50082557    -0.57800
O99         O  0.19140456  0.00243264  0.57939953    -0.56600
C100        C  0.28582140  0.00396842  0.47332595     0.77200
O101        O  0.25090106  0.99762177  0.58822598    -0.59000
O102        O  0.26207419  0.94061007  0.52658899    -0.57400
O103        O  0.26405933  0.05942372  0.52848513    -0.57400
O104        O  0.25154753  0.00389173  0.46483495    -0.56600
O105        O  0.88125302  0.48253781  0.71041711    -0.57800
C106        C  0.00985556  0.47897618  0.67826268     0.74800
O107        O  0.93197225  0.39556934  0.64104706    -0.59000
C108        C  0.85747614  0.48150712  0.68454490     0.74800
C109        C  0.93204443  0.50297787  0.60871089     0.77200
Cd110      Cd  0.93253753  0.45589745  0.66978608     1.37500
O111        O  0.98919852  0.48034382  0.70634592    -0.57800
O112        O  0.93183725  0.51419110  0.64132981    -0.56600
C113        C  0.93647978  0.37572481  0.66927063     0.77200
O114        O  0.93045510  0.46804622  0.60361877    -0.59000
O115        O  0.99478640  0.46664473  0.64972368    -0.57400
O116        O  0.86811152  0.46673485  0.65527811    -0.57400
O117        O  0.93710900  0.39247700  0.69963146    -0.56600
O118        O  0.98975177  0.72032758  0.47119631    -0.57800
C119        C  0.85399160  0.69543292  0.48660112     0.74800
O120        O  0.93147711  0.65261928  0.40593355    -0.59000
C121        C  0.00483710  0.69306748  0.48781571     0.74800
C122        C  0.92787455  0.61553398  0.49922579     0.77200
Cd123      Cd  0.92855717  0.68371229  0.46280072     1.36300
O124        O  0.87662748  0.72209462  0.49211764    -0.57800
O125        O  0.92609484  0.64694110  0.51472481    -0.56600
C126        C  0.92871674  0.68040551  0.38499352     0.77200
O127        O  0.92796219  0.61504828  0.46457410    -0.59000
O128        O  0.86579973  0.66836464  0.46856292    -0.57400
O129        O  0.98376718  0.66694904  0.49631335    -0.57400
O130        O  0.92692049  0.71214158  0.39979983    -0.56600
O131        O  0.86167170  0.49349555  0.28971574    -0.57800
C132        C  0.00506260  0.49661325  0.31049207     0.74800
O133        O  0.92828823  0.55437812  0.33252507    -0.59000
C134        C  0.84821108  0.49739646  0.32163143     0.74800
C135        C  0.92699589  0.41616748  0.32066219     0.77200
Cd136      Cd  0.92628448  0.49340459  0.30939889     1.37500
O137        O  0.98743420  0.49269263  0.28040605    -0.57800
O138        O  0.92303176  0.42849755  0.28810574    -0.56600
C139        C  0.92594697  0.57066262  0.30162975     0.77200
O140        O  0.93016588  0.43962922  0.34643899    -0.59000
O141        O  0.98599910  0.49826066  0.33962524    -0.57400
O142        O  0.87111974  0.49881580  0.34823261    -0.57400
O143        O  0.92455422  0.55069389  0.27285746    -0.56600
O144        O  0.99229802  0.27966559  0.48489120    -0.57800
C145        C  0.85378084  0.31172627  0.50759137     0.74800
O146        O  0.94106006  0.31866051  0.55474388    -0.59000
C147        C  0.00626226  0.31221534  0.48673653     0.74800
C148        C  0.92119456  0.30892663  0.41927087     0.77200
Cd149      Cd  0.92958482  0.29986453  0.49466519     1.37500
O150        O  0.86634153  0.27928921  0.50105339    -0.57800
O151        O  0.92373680  0.27582724  0.43197502    -0.56600
C152        C  0.94133142  0.28636249  0.56906397     0.77200
O153        O  0.92047293  0.33578903  0.44172894    -0.59000
O154        O  0.87687967  0.33850955  0.50877873    -0.57400
O155        O  0.98410143  0.33941619  0.49101641    -0.57400
O156        O  0.93660982  0.25828192  0.54821722    -0.56600
C157        C  0.75650279  0.50663908  0.71083204     0.86500
C158        C  0.75777942  0.54335425  0.68850904    -0.53700
C159        C  0.77666630  0.54143327  0.65649200     0.09400
C160        C  0.79635713  0.50390189  0.65130190     0.20400
C161        C  0.74462620  0.47639997  0.68303650    -0.54500
C162        C  0.76546482  0.47507928  0.65215684     0.09500
C163        C  0.79838594  0.49887746  0.71777195    -0.54000
C164        C  0.81890547  0.49624510  0.68652217     0.10100
H165        H  0.74337646  0.56850147  0.69645670     0.14600
H166        H  0.81290903  0.50255343  0.62591139     0.00400
H167        H  0.72266279  0.45653253  0.68833124     0.14900
H168        H  0.81117961  0.49487469  0.74395109     0.14700
C169        C  0.63346376  0.51034320  0.82115203     0.86500
C170        C  0.61099045  0.47412159  0.81958438    -0.53700
C171        C  0.58229238  0.47177180  0.84354768     0.09400
C172        C  0.58010965  0.50604010  0.86911857     0.20400
C173        C  0.60446638  0.54212355  0.81901227    -0.54500
C174        C  0.57556784  0.53972844  0.84322313     0.09500
C175        C  0.64679557  0.51275396  0.86125511    -0.54000
C176        C  0.61920477  0.51077159  0.88640601     0.10100
H177        H  0.61829475  0.45181955  0.80133495     0.14600
H178        H  0.55887999  0.50371413  0.89028527     0.00400
H179        H  0.60716790  0.56547564  0.80069409     0.14900
H180        H  0.67529408  0.51813530  0.86910947     0.14700
C181        C  0.42494306  0.83027480  0.70098260     0.86500
C182        C  0.39418968  0.82273624  0.67220218    -0.53700
C183        C  0.39480911  0.84573845  0.64261593     0.09400
C184        C  0.42525346  0.87544823  0.64467322     0.20400
C185        C  0.46115754  0.83022981  0.67905996    -0.54500
C186        C  0.46187990  0.85379356  0.64966891     0.09500
C187        C  0.41789394  0.87144992  0.71075597    -0.54000
C188        C  0.41848641  0.89514937  0.68148700     0.10100
H189        H  0.37266305  0.80195030  0.67528023     0.14600
H190        H  0.42452893  0.89402378  0.62058915     0.00400
H191        H  0.48422010  0.81216045  0.68600582     0.14900
H192        H  0.41080832  0.88091282  0.73775517     0.14700
C193        C  0.42751215  0.71250074  0.81758368     0.86500
C194        C  0.46059561  0.68602540  0.81259637    -0.53700
C195        C  0.46319369  0.65801866  0.83767416     0.09400
C196        C  0.43137157  0.65841490  0.86537670     0.20400
C197        C  0.39298962  0.68725433  0.81855793    -0.54500
C198        C  0.39515587  0.65829990  0.84271828     0.09500
C199        C  0.43119561  0.72568292  0.85798576    -0.54000
C200        C  0.43400140  0.69726463  0.88274063     0.10100
H201        H  0.47918052  0.68873882  0.78981402     0.14600
H202        H  0.43299580  0.63528827  0.88541897     0.00400
H203        H  0.36939205  0.69101441  0.80048188     0.14900
H204        H  0.43230975  0.75426574  0.86688589     0.14700
C205        C  0.75037477  0.70880141  0.50892006     0.86500
C206        C  0.74365977  0.68145427  0.47724668    -0.53700
C207        C  0.76835142  0.65302304  0.47557724     0.09400
C208        C  0.79792168  0.65434961  0.50564982     0.20400
C209        C  0.75291483  0.68502278  0.54370530    -0.54500
C210        C  0.77731698  0.65609253  0.54232314     0.09500
C211        C  0.79101173  0.72179017  0.50239452    -0.54000
C212        C  0.81572864  0.69299047  0.50045251     0.10100
H213        H  0.72106078  0.68424799  0.45792850     0.14600
H214        H  0.81715862  0.63065799  0.50331012     0.00400
H215        H  0.73565544  0.69016824  0.56729002     0.14900
H216        H  0.79911340  0.75010954  0.49618574     0.14700
C217        C  0.63468330  0.82659240  0.50789788     0.86500
C218        C  0.61069943  0.82655553  0.54227775    -0.53700
C219        C  0.58019734  0.84877936  0.54059728     0.09400
C220        C  0.57796253  0.87161291  0.50463268     0.20400
C221        C  0.60715890  0.81899231  0.47586918    -0.54500
C222        C  0.57715664  0.84233517  0.47398486     0.09500
C223        C  0.64530587  0.86745885  0.50148498    -0.54000
C224        C  0.61596832  0.89112784  0.50049823     0.10100
H225        H  0.61726597  0.80948936  0.56583499     0.14600
H226        H  0.55492219  0.89165377  0.50340372     0.00400
H227        H  0.61155204  0.79735685  0.45582695     0.14900
H228        H  0.67298288  0.87688315  0.49542008     0.14700
C229        C  0.42702540  0.19204934  0.30431990     0.86500
C230        C  0.39182000  0.19130471  0.32859794    -0.53700
C231        C  0.39327895  0.16636418  0.35701530     0.09400
C232        C  0.42989426  0.14490329  0.35887354     0.20400
C233        C  0.45878915  0.19904523  0.33166321    -0.54500
C234        C  0.45975375  0.17494495  0.36035439     0.09500
C235        C  0.43077757  0.15075370  0.29274027    -0.54000
C236        C  0.43397446  0.12641867  0.32131864     0.10100
H237        H  0.36862347  0.20992228  0.32474896     0.14600
H238        H  0.43148839  0.12514797  0.38220031     0.00400
H239        H  0.47872681  0.22143257  0.32866271     0.14900
H240        H  0.43142300  0.14138762  0.26483550     0.14700
C241        C  0.42807997  0.31363023  0.19160568     0.86500
C242        C  0.46357853  0.33695085  0.19427237    -0.53700
C243        C  0.46655160  0.36427214  0.16868502     0.09400
C244        C  0.43388277  0.36493970  0.14128263     0.20400
C245        C  0.39602797  0.34228254  0.19054376    -0.54500
C246        C  0.39887451  0.36999991  0.16450779     0.09500
C247        C  0.42740786  0.29850623  0.15203152    -0.54000
C248        C  0.42985155  0.32534841  0.12579004     0.10100
H249        H  0.48445559  0.33234289  0.21518266     0.14600
H250        H  0.43809192  0.38511626  0.11929403     0.00400
H251        H  0.37241994  0.33997143  0.20818594     0.14900
H252        H  0.42119877  0.26980760  0.14533989     0.14700
C253        C  0.10973722  0.50734522  0.29092434     0.86500
C254        C  0.11181393  0.53967456  0.31783316    -0.53700
C255        C  0.09133717  0.53514545  0.34832462     0.09400
C256        C  0.06786752  0.49946431  0.34825200     0.20400
C257        C  0.11816777  0.47224506  0.31421140    -0.54500
C258        C  0.09602195  0.46785854  0.34395201     0.09500
C259        C  0.06811366  0.50272600  0.28183945    -0.54000
C260        C  0.04604820  0.49966115  0.31200399     0.10100
H261        H  0.12815911  0.56441347  0.31273780     0.14600
H262        H  0.05020598  0.49650233  0.37276601     0.00400
H263        H  0.14080435  0.45368875  0.30834553     0.14900
H264        H  0.05690418  0.50121147  0.25451485     0.14700
C265        C  0.22717694  0.51894056  0.17941381     0.86500
C266        C  0.25228742  0.48454792  0.18453860    -0.53700
C267        C  0.27984895  0.48108809  0.15943234     0.09400
C268        C  0.28016786  0.51340084  0.13170343     0.20400
C269        C  0.25355235  0.55250776  0.17854935    -0.54500
C270        C  0.28203593  0.54929518  0.15462857     0.09500
C271        C  0.21335575  0.51501742  0.13927050    -0.54000
C272        C  0.24122817  0.51187283  0.11446346     0.10100
H273        H  0.24897403  0.46553960  0.20708619     0.14600
H274        H  0.30245489  0.51180195  0.11112081     0.00400
H275        H  0.25073456  0.57622418  0.19653972     0.14900
H276        H  0.18469646  0.51147389  0.13119126     0.14700
C277        C  0.11153729  0.29909947  0.49068631     0.86500
C278        C  0.11782823  0.32680993  0.45906498    -0.53700
C279        C  0.09477645  0.35671676  0.45894002     0.09400
C280        C  0.06626963  0.35584597  0.49007526     0.20400
C281        C  0.11279481  0.32275826  0.52525826    -0.54500
C282        C  0.08948655  0.35252934  0.52554552     0.09500
C283        C  0.07077953  0.28834282  0.48532018    -0.54000
C284        C  0.04684013  0.31772036  0.48609929     0.10100
H285        H  0.13794207  0.32278825  0.43760322     0.14600
H286        H  0.04724973  0.37971642  0.48870748     0.00400
H287        H  0.13135306  0.31636579  0.54784332     0.14900
H288        H  0.06137538  0.26017512  0.48118787     0.14700
C289        C  0.22988658  0.18561359  0.50322265     0.86500
C290        C  0.25335722  0.19098316  0.53777595    -0.53700
C291        C  0.28185171  0.16658081  0.54212964     0.09400
C292        C  0.28387509  0.13791145  0.51069877     0.20400
C293        C  0.25695898  0.18513089  0.47111144    -0.54500
C294        C  0.28599694  0.16131031  0.47516385     0.09500
C295        C  0.21684802  0.14464954  0.50515780    -0.54000
C296        C  0.24487894  0.11965907  0.50954229     0.10100
H297        H  0.24788178  0.21298860  0.55720398     0.14600
H298        H  0.30669292  0.11766657  0.51297558     0.00400
H299        H  0.25360277  0.20246681  0.44704276     0.14900
H300        H  0.18831276  0.13565394  0.50294012     0.14700
C301        C  0.22642695  0.50794014  0.81759231     0.86500
C302        C  0.25239246  0.54227605  0.81553600    -0.53700
C303        C  0.28216325  0.54121341  0.83870143     0.09400
C304        C  0.28203182  0.50661562  0.86387216     0.20400
C305        C  0.25277937  0.47447586  0.81345514    -0.54500
C306        C  0.28132932  0.47306387  0.83802942     0.09500
C307        C  0.21470252  0.50808054  0.85814575    -0.54000
C308        C  0.24361204  0.50604972  0.88233445     0.10100
H309        H  0.24721256  0.56612552  0.79810248     0.14600
H310        H  0.30563711  0.50599083  0.88339717     0.00400
H311        H  0.24959736  0.45453903  0.79163806     0.14900
H312        H  0.18628048  0.50871986  0.86712598     0.14700
C313        C  0.11422941  0.50071130  0.69582112     0.86500
C314        C  0.12263289  0.46682496  0.67149891    -0.53700
C315        C  0.09975301  0.46259723  0.64193563     0.09400
C316        C  0.06993615  0.49325757  0.63976058     0.20400
C317        C  0.11248219  0.53485844  0.67022755    -0.54500
C318        C  0.09086898  0.53055495  0.63994006     0.09500
C319        C  0.07277254  0.49500241  0.70621602    -0.54000
C320        C  0.04964649  0.49044473  0.67675368     0.10100
H321        H  0.14368289  0.44698315  0.67919788     0.14600
H322        H  0.05104592  0.49104741  0.61597273     0.00400
H323        H  0.12766519  0.56031094  0.67528251     0.14900
H324        H  0.06248823  0.49373793  0.73387694     0.14700
C325        C  0.23047380  0.81744806  0.49200387     0.86500
C326        C  0.25612015  0.81943572  0.45857150    -0.53700
C327        C  0.28416751  0.84476066  0.46141003     0.09400
C328        C  0.28303148  0.86740712  0.49709258     0.20400
C329        C  0.25634135  0.81256350  0.52524720    -0.54500
C330        C  0.28347589  0.83865855  0.52801227     0.09500
C331        C  0.21628190  0.85820999  0.49496000    -0.54000
C332        C  0.24372101  0.88406721  0.49872196     0.10100
H333        H  0.25265673  0.80263218  0.43448917     0.14600
H334        H  0.30565786  0.88818297  0.49949313     0.00400
H335        H  0.25299789  0.79057501  0.54534304     0.14900
H336        H  0.18740748  0.86628076  0.49512368     0.14700
C337        C  0.11135073  0.70197149  0.49478657     0.86500
C338        C  0.11361618  0.67685988  0.52889711    -0.53700
C339        C  0.08792006  0.64916811  0.53008512     0.09400
C340        C  0.06220551  0.64863648  0.49659696     0.20400
C341        C  0.11341904  0.67437374  0.46243904    -0.54500
C342        C  0.08780051  0.64629427  0.46320307     0.09500
C343        C  0.07086157  0.71573882  0.49198949    -0.54000
C344        C  0.04512930  0.68809017  0.49394788     0.10100
H345        H  0.13498827  0.67991164  0.54959703     0.14600
H346        H  0.04205206  0.62561757  0.49845000     0.00400
H347        H  0.13263647  0.67716036  0.43999920     0.14900
H348        H  0.06315890  0.74424021  0.48639989     0.14700
C349        C  0.43301494  0.82602287  0.29729421     0.86500
C350        C  0.46695864  0.81763642  0.32250295    -0.53700
C351        C  0.47025899  0.84055821  0.35213397     0.09400
C352        C  0.43808024  0.86837262  0.35447256     0.20400
C353        C  0.40047138  0.82193781  0.32388867    -0.54500
C354        C  0.40259880  0.84420292  0.35374558     0.09500
C355        C  0.43600772  0.86773786  0.28830745    -0.54000
C356        C  0.43906442  0.88992441  0.31806648     0.10100
H357        H  0.48484944  0.79399199  0.31856071     0.14600
H358        H  0.44054302  0.88651501  0.37837830     0.00400
H359        H  0.37786945  0.80264163  0.31992882     0.14900
H360        H  0.43728943  0.87848315  0.26063352     0.14700
C361        C  0.42989514  0.71767206  0.17679316     0.86500
C362        C  0.39323679  0.69502494  0.17494861    -0.53700
C363        C  0.39380454  0.66621252  0.15070195     0.09400
C364        C  0.43101985  0.66218381  0.13120758     0.20400
C365        C  0.45885274  0.68741673  0.18596822    -0.54500
C366        C  0.45961254  0.65836072  0.16228740     0.09500
C367        C  0.43705220  0.72936315  0.13701491    -0.54000
C368        C  0.43857737  0.70042643  0.11331066     0.10100
H369        H  0.37003273  0.69888495  0.19311881     0.14600
H370        H  0.43136383  0.63859219  0.11192842     0.00400
H371        H  0.47753134  0.68898167  0.20914046     0.14900
H372        H  0.44203159  0.75793297  0.12873593     0.14700
C373        C  0.74238749  0.50685417  0.30997513     0.86500
C374        C  0.73675425  0.47105177  0.33285569    -0.53700
C375        C  0.76016427  0.46760000  0.36224482     0.09400
C376        C  0.78849165  0.49982285  0.36490507     0.20400
C377        C  0.74081804  0.53861573  0.33793084    -0.54500
C378        C  0.76451834  0.53508542  0.36693443     0.09500
C379        C  0.78320405  0.50338306  0.29882348    -0.54000
C380        C  0.80755053  0.50061072  0.32728470     0.10100
H381        H  0.71717054  0.44973585  0.32522286     0.14600
H382        H  0.80869818  0.49751763  0.38758214     0.00400
H383        H  0.72207223  0.56202410  0.33499626     0.14900
H384        H  0.79215558  0.50221787  0.27073844     0.14700
C385        C  0.63181214  0.51460615  0.18856202     0.86500
C386        C  0.60419133  0.54730351  0.18889970    -0.53700
C387        C  0.57744215  0.54642174  0.16234588     0.09400
C388        C  0.58134308  0.51236346  0.13708929     0.20400
C389        C  0.60817449  0.47908132  0.18849458    -0.54500
C390        C  0.58119024  0.47818625  0.16254222     0.09500
C391        C  0.64792283  0.51536794  0.14914780    -0.54000
C392        C  0.62147690  0.51433211  0.12212113     0.10100
H393        H  0.60534608  0.56905378  0.20932012     0.14600
H394        H  0.55931828  0.51057982  0.11610869     0.00400
H395        H  0.61150101  0.45686899  0.20836020     0.14900
H396        H  0.67713069  0.51665115  0.14281699     0.14700
C397        C  0.43124496  0.30322944  0.83085588     0.86500
C398        C  0.40032523  0.33179723  0.82239162    -0.53700
C399        C  0.39939670  0.36173429  0.84523918     0.09400
C400        C  0.43039929  0.36084855  0.87441109     0.20400
C401        C  0.46662858  0.32738769  0.82961352    -0.54500
C402        C  0.46685699  0.35720017  0.85248096     0.09500
C403        C  0.42694325  0.29314083  0.87149342    -0.54000
C404        C  0.42531839  0.32300989  0.89426607     0.10100
H405        H  0.38061555  0.32856861  0.80020510     0.14600
H406        H  0.42949243  0.38510285  0.89290007     0.00400
H407        H  0.48914879  0.32311237  0.81074154     0.14900
H408        H  0.42358295  0.26475829  0.88108391     0.14700
C409        C  0.43184449  0.19374272  0.71045934     0.86500
C410        C  0.46431783  0.19704250  0.68280769    -0.53700
C411        C  0.46084956  0.17489596  0.65258258     0.09400
C412        C  0.42455737  0.15267271  0.65221372     0.20400
C413        C  0.39734888  0.20300269  0.68658128    -0.54500
C414        C  0.39387125  0.18208041  0.65580139     0.09500
C415        C  0.42789162  0.15192735  0.71862113    -0.54000
C416        C  0.42336092  0.13047010  0.68843950     0.10100
H417        H  0.48751441  0.21576883  0.68609173     0.14600
H418        H  0.42159745  0.13496044  0.62763365     0.00400
H419        H  0.37671423  0.22349065  0.69385457     0.14900
H420        H  0.42644015  0.14069745  0.74610039     0.14700
C421        C  0.74795327  0.30258090  0.51331703     0.86500
C422        C  0.74532578  0.32905107  0.54580877    -0.53700
C423        C  0.77021012  0.35733390  0.54530644     0.09400
C424        C  0.79581172  0.35719472  0.51206901     0.20400
C425        C  0.74513138  0.32799773  0.47935388    -0.54500
C426        C  0.76975264  0.35693843  0.47851812     0.09500
C427        C  0.78853757  0.28985036  0.51186977    -0.54000
C428        C  0.81368376  0.31823181  0.51200968     0.10100
H429        H  0.72479653  0.32610284  0.56713359     0.14600
H430        H  0.81537939  0.38068371  0.51291006     0.00400
H431        H  0.72551632  0.32317293  0.45733342     0.14900
H432        H  0.79690211  0.26129264  0.50833478     0.14700
C433        C  0.62731790  0.19131346  0.50791005     0.86500
C434        C  0.60217655  0.19587747  0.47405837    -0.53700
C435        C  0.57394734  0.17087649  0.47201340     0.09400
C436        C  0.57409703  0.14228819  0.50352656     0.20400
C437        C  0.60148770  0.19084444  0.54085764    -0.54500
C438        C  0.57370015  0.16542860  0.53908859     0.09500
C439        C  0.64109435  0.15062158  0.50450205    -0.54000
C440        C  0.61335774  0.12502116  0.50199511     0.10100
H441        H  0.60634134  0.21696215  0.45327443     0.14600
H442        H  0.55117420  0.12179622  0.50166717     0.00400
H443        H  0.60435086  0.21012930  0.56341667     0.14900
H444        H  0.66979102  0.14279380  0.50082964     0.14700
C445        C  0.69175545  0.21132641  0.52681333    -0.05800
C446        C  0.65717519  0.22144728  0.51187399     0.00200
C447        C  0.65097926  0.26004868  0.50491377    -0.08400
C448        C  0.68164052  0.28398254  0.50436666    -0.05800
C449        C  0.71743978  0.27276788  0.51508610     0.00100
C450        C  0.72096719  0.23681298  0.53125616    -0.08300
C451        C  0.75255763  0.22476284  0.55626846     0.62100
H452        H  0.69548229  0.18359255  0.53758869     0.12800
H453        H  0.67697952  0.31280105  0.49701534     0.12800
C454        C  0.61354312  0.27873093  0.49867260     0.62300
F455        F  0.73964265  0.20117030  0.58328991    -0.22900
F456        F  0.76862391  0.25455185  0.57395176    -0.20200
F457        F  0.77879426  0.20567466  0.53651631    -0.19900
F458        F  0.58373701  0.25767850  0.50960795    -0.19900
F459        F  0.60954223  0.28752611  0.46212883    -0.20300
F460        F  0.61204525  0.31135257  0.51850731    -0.22900
C461        C  0.52293989  0.15396085  0.63018423    -0.05800
C462        C  0.48937312  0.17230090  0.62275136     0.00200
C463        C  0.48377470  0.18745002  0.58724502    -0.08400
C464        C  0.51093380  0.18235947  0.56021967    -0.05800
C465        C  0.54434474  0.16424998  0.56771489     0.00100
C466        C  0.55084123  0.15027448  0.60342612    -0.08300
C467        C  0.58727231  0.13174346  0.61312625     0.62100
H468        H  0.52732716  0.14296170  0.65736570     0.12800
H469        H  0.50689020  0.19379898  0.53314603     0.12800
C470        C  0.45020849  0.21070361  0.57825512     0.62300
F471        F  0.58731408  0.11791508  0.64835499    -0.22900
F472        F  0.61584089  0.15710543  0.61050657    -0.20200
F473        F  0.59375268  0.10268299  0.58947208    -0.19900
F474        F  0.45319546  0.22831206  0.54477279    -0.19900
F475        F  0.44630040  0.23782770  0.60442990    -0.20300
F476        F  0.41932471  0.18827574  0.57721759    -0.22900
C477        C  0.46492870  0.25498727  0.79199930    -0.05800
C478        C  0.43104932  0.26899122  0.80519218     0.00200
C479        C  0.39833115  0.24992373  0.79375302    -0.08400
C480        C  0.40036693  0.22571652  0.76365670    -0.05800
C481        C  0.43388862  0.21690244  0.74609616     0.00100
C482        C  0.46698688  0.22771035  0.76451148    -0.08300
C483        C  0.50462586  0.20990016  0.75887779     0.62100
H484        H  0.49055428  0.26383557  0.80453951     0.12800
H485        H  0.37498999  0.21282323  0.75423733     0.12800
C486        C  0.36050073  0.25281056  0.81161138     0.62300
F487        F  0.52189506  0.20434149  0.79226496    -0.22900
F488        F  0.52654696  0.23326381  0.73820666    -0.20200
F489        F  0.50225287  0.17547996  0.74255650    -0.19900
F490        F  0.33634786  0.27099545  0.78825866    -0.19900
F491        F  0.36078899  0.27091956  0.84460560    -0.20300
F492        F  0.34697679  0.21740606  0.81808940    -0.22900
C493        C  0.79532481  0.42261404  0.39955513    -0.05800
C494        C  0.76041548  0.43591056  0.38889357     0.00200
C495        C  0.72849644  0.42183876  0.40690207    -0.08400
C496        C  0.73362829  0.39800344  0.43710913    -0.05800
C497        C  0.76873038  0.38532179  0.44835242     0.00100
C498        C  0.80022143  0.39714851  0.42836310    -0.08300
C499        C  0.83890710  0.38266782  0.43579413     0.62100
H500        H  0.81927764  0.43266977  0.38494194     0.12800
H501        H  0.70972755  0.38804157  0.45184363     0.12800
C502        C  0.68903079  0.42923436  0.39388676     0.62300
F503        F  0.86281603  0.39097646  0.40759620    -0.22900
F504        F  0.83804851  0.34453566  0.43950016    -0.20200
F505        F  0.85325185  0.39883215  0.46681449    -0.19900
F506        F  0.68239334  0.40918761  0.36247141    -0.19900
F507        F  0.68299380  0.46647465  0.38704286    -0.20300
F508        F  0.66322090  0.41808446  0.41945128    -0.22900
C509        C  0.69485584  0.53055959  0.21669197    -0.05800
C510        C  0.65897814  0.51603591  0.22151711     0.00200
C511        C  0.64913562  0.50559902  0.25803581    -0.08400
C512        C  0.67736781  0.50145237  0.28443916    -0.05800
C513        C  0.71410266  0.51270336  0.27850143     0.00100
C514        C  0.72104188  0.53262007  0.24544742    -0.08300
C515        C  0.75306805  0.55945069  0.23972694     0.62100
H516        H  0.70177878  0.54359845  0.19102493     0.12800
H517        H  0.66982985  0.49116133  0.31118990     0.12800
C518        C  0.61008515  0.49946255  0.27248274     0.62300
F519        F  0.74028007  0.59139161  0.22268657    -0.22900
F520        F  0.77929249  0.54324329  0.21762561    -0.20200
F521        F  0.76936617  0.57077179  0.27193995    -0.19900
F522        F  0.60545630  0.46233114  0.28119404    -0.19900
F523        F  0.58219867  0.51008415  0.24898844    -0.20300
F524        F  0.60559776  0.52017086  0.30387576    -0.22900
C525        C  0.50654312  0.62065847  0.13148556    -0.05800
C526        C  0.48773733  0.62786553  0.16386963     0.00200
C527        C  0.49781499  0.60744770  0.19573773    -0.08400
C528        C  0.52728888  0.58174213  0.19375890    -0.05800
C529        C  0.54616162  0.57435798  0.16109250     0.00100
C530        C  0.53550947  0.59474464  0.12936327    -0.08300
C531        C  0.55435024  0.59044791  0.09307334     0.62100
H532        H  0.49875489  0.63632956  0.10741697     0.12800
H533        H  0.53517590  0.56647511  0.21814778     0.12800
C534        C  0.47854082  0.61064453  0.23228849     0.62300
F535        F  0.54778525  0.62041657  0.07010535    -0.22900
F536        F  0.54064713  0.55914135  0.07616653    -0.20200
F537        F  0.59207507  0.58803603  0.09813345    -0.19900
F538        F  0.47118095  0.57548046  0.24582672    -0.19900
F539        F  0.44525904  0.62926123  0.23042893    -0.20300
F540        F  0.50162961  0.62886682  0.25652818    -0.22900
C541        C  0.46382186  0.79072321  0.24665065    -0.05800
C542        C  0.43048673  0.80239068  0.26242329     0.00200
C543        C  0.39712937  0.79397845  0.24303231    -0.08400
C544        C  0.39811329  0.76649546  0.21578040    -0.05800
C545        C  0.43141477  0.75070704  0.20343574     0.00100
C546        C  0.46514405  0.76691875  0.21644007    -0.08300
C547        C  0.50367551  0.76064048  0.20094581     0.62100
H548        H  0.48973173  0.80124882  0.25741630     0.12800
H549        H  0.37230798  0.75880902  0.20280871     0.12800
C550        C  0.36015491  0.81351382  0.24817062     0.62300
F551        F  0.52144055  0.79451023  0.19710790    -0.22900
F552        F  0.50387405  0.74416366  0.16713788    -0.20200
F553        F  0.52397389  0.73897615  0.22502231    -0.19900
F554        F  0.36350831  0.84752761  0.26510304    -0.19900
F555        F  0.33669506  0.79090643  0.26800283    -0.20300
F556        F  0.34388750  0.82031412  0.21452228    -0.22900
C557        C  0.34844599  0.87410626  0.38342166    -0.05800
C558        C  0.37333490  0.84415881  0.38253545     0.00200
C559        C  0.36812314  0.81397838  0.40713970    -0.08400
C560        C  0.33981041  0.81631647  0.43341816    -0.05800
C561        C  0.31503813  0.84631537  0.43435576     0.00100
C562        C  0.31859594  0.87508978  0.40815665    -0.08300
C563        C  0.28946290  0.90513528  0.40473317     0.62100
H564        H  0.35172950  0.89609710  0.36344212     0.12800
H565        H  0.33571280  0.79381386  0.45268149     0.12800
C566        C  0.39054026  0.77836216  0.40451194     0.62300
F567        F  0.29769942  0.93039693  0.37739280    -0.22900
F568        F  0.28669186  0.92425998  0.43708141    -0.20200
F569        F  0.25567543  0.88899098  0.39664669    -0.19900
F570        F  0.42787158  0.78601832  0.40342097    -0.19900
F571        F  0.38057923  0.75945460  0.37325524    -0.20300
F572        F  0.38443331  0.75503936  0.43397970    -0.22900
C573        C  0.17673776  0.72371694  0.48087581    -0.05800
C574        C  0.14176650  0.73239322  0.49544796     0.00200
C575        C  0.13880546  0.76690795  0.51427105    -0.08400
C576        C  0.16707768  0.79357703  0.51010096    -0.05800
C577        C  0.20051501  0.78651423  0.49170715     0.00100
C578        C  0.20669525  0.74895620  0.48039660    -0.08300
C579        C  0.24392507  0.73342237  0.46814065     0.62100
H580        H  0.18147504  0.69590095  0.47100584     0.12800
H581        H  0.16360430  0.81977195  0.52384824     0.12800
C582        C  0.10767100  0.77695192  0.54030336     0.62300
F583        F  0.24622971  0.69566204  0.47529297    -0.22900
F584        F  0.27334209  0.74959081  0.48622276    -0.20200
F585        F  0.24780231  0.73831485  0.43098911    -0.19900
F586        F  0.09243083  0.74612647  0.55684312    -0.19900
F587        F  0.08052130  0.79646278  0.52173743    -0.20300
F588        F  0.12080883  0.79930715  0.56818632    -0.22900
C589        C  0.07802020  0.59603333  0.62059942    -0.05800
C590        C  0.08843464  0.55988742  0.61052328     0.00200
C591        C  0.09924100  0.55367521  0.57377656    -0.08400
C592        C  0.09777971  0.58337512  0.54847679    -0.05800
C593        C  0.08767884  0.61936102  0.55874627     0.00100
C594        C  0.07748471  0.62588885  0.59537855    -0.08300
C595        C  0.06572252  0.66418771  0.60769380     0.62100
H596        H  0.07047810  0.60078522  0.64871821     0.12800
H597        H  0.10541407  0.57894615  0.52031416     0.12800
C598        C  0.11467146  0.51678550  0.56139311     0.62300
F599        F  0.05205698  0.66365663  0.64284851    -0.22900
F600        F  0.03826967  0.67774571  0.58482202    -0.20200
F601        F  0.09576947  0.68787675  0.60693828    -0.19900
F602        F  0.08696212  0.49044500  0.56014892    -0.19900
F603        F  0.14228836  0.50551614  0.58499073    -0.20300
F604        F  0.13004434  0.51936466  0.52708173    -0.22900
C605        C  0.34752082  0.45459336  0.83693567    -0.05800
C606        C  0.31047498  0.44329695  0.83883935     0.00200
C607        C  0.30265434  0.40470998  0.84255996    -0.08400
C608        C  0.33243222  0.37932251  0.84566605    -0.05800
C609        C  0.36952142  0.39076443  0.84302984     0.00100
C610        C  0.37691811  0.42890285  0.83654923    -0.08300
C611        C  0.41495818  0.44226445  0.82577819     0.62100
H612        H  0.35341930  0.48398371  0.83469749     0.12800
H613        H  0.32694302  0.34995903  0.84938515     0.12800
C614        C  0.26331963  0.39003578  0.84344123     0.62300
F615        F  0.41382479  0.47790223  0.81153896    -0.22900
F616        F  0.42877207  0.41942986  0.79895960    -0.20200
F617        F  0.43827166  0.44213297  0.85571305    -0.19900
F618        F  0.24218657  0.41097259  0.86691345    -0.19900
F619        F  0.26204460  0.35340570  0.85499159    -0.20300
F620        F  0.24797649  0.39154229  0.80891778    -0.22900
C621        C  0.20334931  0.52191212  0.75356017    -0.05800
C622        C  0.19518217  0.50653587  0.78799027     0.00200
C623        C  0.16188318  0.48495068  0.79007988    -0.08400
C624        C  0.13593106  0.48657436  0.76094474    -0.05800
C625        C  0.14338061  0.50387222  0.72719795     0.00100
C626        C  0.17995952  0.51870379  0.72278584    -0.08300
C627        C  0.19731649  0.53107642  0.68687064     0.62100
H628        H  0.23017095  0.53440067  0.74944362     0.12800
H629        H  0.11029902  0.47151593  0.76396147     0.12800
C630        C  0.15254696  0.45831742  0.82104918     0.62300
F631        F  0.19565945  0.56936277  0.68411794    -0.22900
F632        F  0.18102165  0.51553252  0.65663179    -0.20200
F633        F  0.23414950  0.52053331  0.68589175    -0.19900
F634        F  0.13142320  0.47645679  0.84669959    -0.19900
F635        F  0.18366713  0.44355251  0.83732026    -0.20300
F636        F  0.13235720  0.42834410  0.80814007    -0.22900
C637        C  0.32253701  0.20628512  0.58120429    -0.05800
C638        C  0.30873280  0.17053565  0.57341232     0.00200
C639        C  0.31901977  0.14095587  0.59697358    -0.08400
C640        C  0.34475718  0.14758169  0.62494244    -0.05800
C641        C  0.36120432  0.18229276  0.63058316     0.00100
C642        C  0.34859774  0.21299886  0.60922027    -0.08300
C643        C  0.36128237  0.25308132  0.61302089     0.62100
H644        H  0.31357707  0.22946199  0.56436338     0.12800
H645        H  0.35305780  0.12490048  0.64244407     0.12800
C646        C  0.30316634  0.10236539  0.59368602     0.62300
F647        F  0.38801165  0.25855495  0.63927152    -0.22900
F648        F  0.33114228  0.27488758  0.62174601    -0.20200
F649        F  0.37533158  0.26531092  0.58008433    -0.19900
F650        F  0.32099597  0.08368118  0.56614446    -0.19900
F651        F  0.26571813  0.10444185  0.58695816    -0.20300
F652        F  0.30794678  0.08209614  0.62543420    -0.22900
C653        C  0.12604732  0.39008885  0.56960398    -0.05800
C654        C  0.09085922  0.37989530  0.55634726     0.00200
C655        C  0.05929210  0.39321411  0.57483694    -0.08400
C656        C  0.06436412  0.41812635  0.60382639    -0.05800
C657        C  0.09938836  0.43019573  0.61585106     0.00100
C658        C  0.13118570  0.41368154  0.59980127    -0.08300
C659        C  0.17027592  0.41821223  0.61471623     0.62100
H660        H  0.15003018  0.37867978  0.55611993     0.12800
H661        H  0.04014908  0.42882866  0.61731733     0.12800
C662        C  0.02025974  0.38130116  0.56503635     0.62300
F663        F  0.19649789  0.40300609  0.59182361    -0.22900
F664        F  0.17318773  0.39994177  0.64782018    -0.20200
F665        F  0.17917536  0.45510039  0.61892721    -0.19900
F666        F  0.01909287  0.34338426  0.55982589    -0.19900
F667        F  0.99538954  0.38962024  0.59228824    -0.20300
F668        F  0.00860033  0.39973962  0.53399540    -0.22900
C669        C  0.17670443  0.27673294  0.48332166    -0.05800
C670        C  0.14027461  0.26767131  0.49361625     0.00200
C671        C  0.13527831  0.23377748  0.51347345    -0.08400
C672        C  0.16443510  0.20782112  0.51422284    -0.05800
C673        C  0.19989065  0.21569474  0.50042837     0.00100
C674        C  0.20687938  0.25289343  0.48866227    -0.08300
C675        C  0.24474962  0.27062629  0.48225910     0.62100
H676        H  0.18276417  0.30442524  0.47358953     0.12800
H677        H  0.15978234  0.18169711  0.52791956     0.12800
C678        C  0.10085245  0.22370241  0.53528940     0.62300
F679        F  0.24560486  0.30567641  0.49771651    -0.22900
F680        F  0.25045515  0.27440163  0.44518454    -0.20200
F681        F  0.27392393  0.25140266  0.49751634    -0.19900
F682        F  0.07578145  0.20545922  0.51310690    -0.19900
F683        F  0.08446738  0.25445869  0.55067463    -0.20300
F684        F  0.10971542  0.20011343  0.56397777    -0.22900
C685        C  0.30816472  0.60742288  0.12806674    -0.05800
C686        C  0.31249696  0.57751754  0.15261104     0.00200
C687        C  0.34416100  0.57715571  0.17606976    -0.08400
C688        C  0.36987205  0.60636579  0.17381602    -0.05800
C689        C  0.36508451  0.63640205  0.15007586     0.00100
C690        C  0.33387826  0.63712064  0.12667303    -0.08300
C691        C  0.32788817  0.66945109  0.10080789     0.62100
H692        H  0.28397743  0.60773749  0.11050071     0.12800
H693        H  0.39400477  0.60592797  0.19138036     0.12800
C694        C  0.35289953  0.54780229  0.20462046     0.62300
F695        F  0.29594083  0.66527568  0.08025367    -0.22900
F696        F  0.35753362  0.67221346  0.07737941    -0.20200
F697        F  0.32507381  0.70203382  0.12043441    -0.19900
F698        F  0.38730310  0.53265236  0.19770016    -0.19900
F699        F  0.32775373  0.51932568  0.20558936    -0.20300
F700        F  0.35379269  0.56420017  0.23866554    -0.22900
C701        C  0.05785475  0.57897685  0.38702164    -0.05800
C702        C  0.09151123  0.56249082  0.37850023     0.00200
C703        C  0.12377801  0.57237868  0.39849825    -0.08400
C704        C  0.12066038  0.59874911  0.42664007    -0.05800
C705        C  0.08694341  0.61626241  0.43477771     0.00100
C706        C  0.05496178  0.60641455  0.41403268    -0.08300
C707        C  0.01794748  0.62508709  0.41863207     0.62100
H708        H  0.03373223  0.57063610  0.37138784     0.12800
H709        H  0.14497720  0.60655884  0.44221567     0.12800
C710        C  0.16141400  0.55546848  0.39052320     0.62300
F711        F  0.99361578  0.61589402  0.39083187    -0.22900
F712        F  0.02227329  0.66321289  0.41826612    -0.20200
F713        F  0.00229520  0.61337628  0.45073685    -0.19900
F714        F  0.17489232  0.56937189  0.35807238    -0.19900
F715        F  0.15873193  0.51724815  0.38826861    -0.20300
F716        F  0.18700320  0.56370684  0.41753283    -0.22900
C717        C  0.10228748  0.44916375  0.40825933    -0.05800
C718        C  0.09993202  0.43783804  0.37182721     0.00200
C719        C  0.09850912  0.39925087  0.36386430    -0.08400
C720        C  0.09546096  0.37390716  0.39316311    -0.05800
C721        C  0.09654820  0.38557518  0.42970260     0.00100
C722        C  0.10264663  0.42359941  0.43725607    -0.08300
C723        C  0.11208646  0.43731769  0.47513799     0.62100
H724        H  0.10420861  0.47860603  0.41398743     0.12800
H725        H  0.09285108  0.34445109  0.38777727     0.12800
C726        C  0.10061624  0.38446754  0.32514556     0.62300
F727        F  0.12748552  0.47246251  0.47382768    -0.22900
F728        F  0.13787246  0.41409827  0.49132084    -0.20200
F729        F  0.08058339  0.43879655  0.49613697    -0.19900
F730        F  0.13582836  0.38974840  0.31175787    -0.19900
F731        F  0.07530360  0.40244895  0.30286638    -0.20300
F732        F  0.09345204  0.34671221  0.32359728    -0.22900
C733        C  0.17541196  0.50896297  0.27082313    -0.05800
C734        C  0.13822288  0.51387573  0.26044405     0.00200
C735        C  0.13165516  0.53070505  0.22575161    -0.08400
C736        C  0.16072348  0.53123591  0.20010203    -0.05800
C737        C  0.19750171  0.52175068  0.20947276     0.00100
C738        C  0.20508658  0.51517168  0.24727156    -0.08300
C739        C  0.24281774  0.51500074  0.26595731     0.62100
H740        H  0.18179201  0.50207245  0.29896711     0.12800
H741        H  0.15477694  0.54174374  0.17309458     0.12800
C742        C  0.09699693  0.55258645  0.21600024     0.62300
F743        F  0.24183385  0.53835028  0.29586028    -0.22900
F744        F  0.27112641  0.52728508  0.24444368    -0.20200
F745        F  0.25093394  0.47944672  0.27798680    -0.19900
F746        F  0.08051469  0.56757235  0.24647153    -0.19900
F747        F  0.07225132  0.53006002  0.19760235    -0.20300
F748        F  0.10574856  0.58231391  0.19354124    -0.22900
C749        C  0.52746533  0.44829911  0.19218675    -0.05800
C750        C  0.55201284  0.44882838  0.16283351     0.00200
C751        C  0.55034619  0.41999060  0.13687253    -0.08400
C752        C  0.52191212  0.39307412  0.13940729    -0.05800
C753        C  0.49712913  0.39252491  0.16878063     0.00100
C754        C  0.50069737  0.42012426  0.19634705    -0.08300
C755        C  0.47660800  0.42030045  0.23013727     0.62100
H756        H  0.53010096  0.46996044  0.21242485     0.12800
H757        H  0.51924645  0.37177558  0.11879963     0.12800
C758        C  0.57952543  0.41702839  0.10770500     0.62300
F759        F  0.48212021  0.45190362  0.25090057    -0.22900
F760        F  0.48528971  0.38998612  0.25170945    -0.20200
F761        F  0.43961857  0.41903870  0.22058917    -0.19900
F762        F  0.61433573  0.41668334  0.12356452    -0.19900
F763        F  0.57681238  0.44702267  0.08431231    -0.20300
F764        F  0.57564600  0.38477196  0.08783318    -0.22900
C765        C  0.33202472  0.38794806  0.16660900    -0.05800
C766        C  0.36864548  0.39891769  0.15854967     0.00200
C767        C  0.37428362  0.43674213  0.14738816    -0.08400
C768        C  0.34462293  0.46181333  0.15004423    -0.05800
C769        C  0.30874378  0.45106657  0.15961438     0.00100
C770        C  0.30189524  0.41283209  0.16662313    -0.08300
C771        C  0.26355717  0.39725266  0.17421762     0.62100
H772        H  0.32662702  0.35901769  0.17265149     0.12800
H773        H  0.34938319  0.49082324  0.14411562     0.12800
C774        C  0.40960285  0.45191003  0.13051496     0.62300
F775        F  0.26170774  0.35967462  0.16657972    -0.22900
F776        F  0.23705085  0.41465547  0.15284377    -0.20200
F777        F  0.25531013  0.40159168  0.21068706    -0.19900
F778        F  0.41376347  0.43731349  0.09598860    -0.19900
F779        F  0.43969516  0.44382898  0.15204350    -0.20300
F780        F  0.40901248  0.49020448  0.12646734    -0.22900
C781        C  0.51488091  0.14758656  0.38837375    -0.05800
C782        C  0.48840810  0.17579148  0.38933455     0.00200
C783        C  0.49091127  0.20352490  0.41669576    -0.08400
C784        C  0.51925444  0.20062783  0.44314328    -0.05800
C785        C  0.54579096  0.17218274  0.44217397     0.00100
C786        C  0.54488561  0.14671942  0.41274944    -0.08300
C787        C  0.57583990  0.12036833  0.40335532     0.62100
H788        H  0.51343652  0.12723090  0.36663929     0.12800
H789        H  0.52082803  0.22102009  0.46480207     0.12800
C790        C  0.46519757  0.23673369  0.41945759     0.62300
F791        F  0.58471459  0.12490715  0.36696421    -0.22900
F792        F  0.56419425  0.08418445  0.40871741    -0.20200
F793        F  0.60755632  0.12691263  0.42333840    -0.19900
F794        F  0.45116967  0.23872058  0.45436390    -0.19900
F795        F  0.43566205  0.23548848  0.39547725    -0.20300
F796        F  0.48513189  0.26876636  0.41254415    -0.22900
C797        C  0.37699215  0.17022182  0.42255473    -0.05800
C798        C  0.36506721  0.16349728  0.38665416     0.00200
C799        C  0.32780371  0.15283259  0.38047254    -0.08400
C800        C  0.30352792  0.15072117  0.41046360    -0.05800
C801        C  0.31513492  0.15873645  0.44629474     0.00100
C802        C  0.35261233  0.16885996  0.45243635    -0.08300
C803        C  0.36655438  0.18042560  0.48980164     0.62100
H804        H  0.40565363  0.17743544  0.42693036     0.12800
H805        H  0.27481244  0.14349162  0.40607449     0.12800
C806        C  0.31388013  0.14257759  0.34268799     0.62300
F807        F  0.40296936  0.19215725  0.48900334    -0.22900
F808        F  0.36462230  0.15086099  0.51377280    -0.20200
F809        F  0.34540937  0.20954544  0.50244282    -0.19900
F810        F  0.33614167  0.11516928  0.32820242    -0.19900
F811        F  0.31425614  0.17328653  0.32006651    -0.20300
F812        F  0.27792471  0.12944820  0.34342157    -0.22900
C813        C  0.41110480  0.25682087  0.28158846    -0.05800
C814        C  0.42754745  0.22221975  0.27371630     0.00200
C815        C  0.44944117  0.22081620  0.24131910    -0.08400
C816        C  0.44614350  0.24979226  0.21531684    -0.05800
C817        C  0.42685950  0.28315510  0.22188838     0.00100
C818        C  0.41275954  0.28790721  0.25795747    -0.08300
C819        C  0.40142194  0.32494677  0.27444776     0.62100
H820        H  0.39893358  0.26076058  0.30811516     0.12800
H821        H  0.46110198  0.24716310  0.19001813     0.12800
C822        C  0.47863379  0.19142419  0.23342854     0.62300
F823        F  0.41036051  0.32592797  0.31120814    -0.22900
F824        F  0.36359727  0.32954110  0.27106515    -0.20200
F825        F  0.41955055  0.35454655  0.25871779    -0.19900
F826        F  0.46318890  0.16316123  0.21296119    -0.19900
F827        F  0.49437929  0.17718274  0.26488323    -0.20300
F828        F  0.50743940  0.20661999  0.21357035    -0.22900
C829        C  0.56202821  0.83689736  0.40713466    -0.05800
C830        C  0.54903482  0.84102642  0.44314698     0.00200
C831        C  0.51005430  0.84262487  0.44838187    -0.08400
C832        C  0.48642839  0.84206801  0.41781230    -0.05800
C833        C  0.49911378  0.83789653  0.38201282     0.00100
C834        C  0.53792655  0.83473403  0.37648582    -0.08300
C835        C  0.55444216  0.82923650  0.33887686     0.62100
H836        H  0.59161427  0.83521040  0.40310163     0.12800
H837        H  0.45699905  0.84483858  0.42204163     0.12800
C838        C  0.49203204  0.84293902  0.48560424     0.62300
F839        F  0.59218866  0.83573687  0.33891811    -0.22900
F840        F  0.53844409  0.85323336  0.31383673    -0.20200
F841        F  0.54886547  0.79301496  0.32782275    -0.19900
F842        F  0.49310832  0.87816690  0.50026247    -0.19900
F843        F  0.50956098  0.81811285  0.50833690    -0.20300
F844        F  0.45529473  0.83218342  0.48373928    -0.22900
C845        C  0.76262090  0.58688488  0.45873360    -0.05800
C846        C  0.76758733  0.62360151  0.44707711     0.00200
C847        C  0.77321172  0.63095264  0.40949029    -0.08400
C848        C  0.77239456  0.60104517  0.38481561    -0.05800
C849        C  0.76701577  0.56412023  0.39622360     0.00100
C850        C  0.76174184  0.55689673  0.43411045    -0.08300
C851        C  0.75287935  0.51852812  0.44888145     0.62100
H852        H  0.75891048  0.58199135  0.48765768     0.12800
H853        H  0.77577942  0.60634295  0.35594869     0.12800
C854        C  0.78125337  0.66984599  0.39533345     0.62300
F855        F  0.74246264  0.51943402  0.48514225    -0.22900
F856        F  0.78336463  0.49569376  0.44644139    -0.20200
F857        F  0.72380577  0.50373054  0.42943647    -0.19900
F858        F  0.78966000  0.66985723  0.35858502    -0.19900
F859        F  0.81112604  0.68468701  0.41385129    -0.20300
F860        F  0.75084586  0.69245573  0.39993473    -0.22900
C861        C  0.72952192  0.77538736  0.52047127    -0.05800
C862        C  0.71971115  0.73857224  0.51171809     0.00200
C863        C  0.68097794  0.73053067  0.50837808    -0.08400
C864        C  0.65588618  0.76026209  0.50594720    -0.05800
C865        C  0.66613665  0.79755432  0.51126975     0.00100
C866        C  0.70319084  0.80420974  0.52349937    -0.08300
C867        C  0.71594330  0.83897872  0.54345152     0.62100
H868        H  0.75788166  0.78148838  0.52774199     0.12800
H869        H  0.62695904  0.75384725  0.50120077     0.12800
C870        C  0.66324790  0.69201979  0.50678790     0.62300
F871        F  0.74170884  0.82985915  0.57013959    -0.22900
F872        F  0.68722243  0.85644432  0.56115173    -0.20200
F873        F  0.73259155  0.86317059  0.51920574    -0.19900
F874        F  0.68565106  0.66373285  0.51925177    -0.19900
F875        F  0.65260417  0.68457182  0.47128410    -0.20300
F876        F  0.63196296  0.69136066  0.52839108    -0.22900
C877        C  0.36287973  0.60558275  0.81197473    -0.05800
C878        C  0.36687579  0.62759951  0.84326633     0.00200
C879        C  0.34264405  0.62140241  0.87286784    -0.08400
C880        C  0.31610127  0.59244005  0.87069938    -0.05800
C881        C  0.31176362  0.57070656  0.83920312     0.00100
C882        C  0.33552889  0.57757828  0.80908703    -0.08300
C883        C  0.33220976  0.55585208  0.77374216     0.62100
H884        H  0.38115319  0.61107904  0.78932904     0.12800
H885        H  0.29787443  0.58703689  0.89342895     0.12800
C886        C  0.34395959  0.64614406  0.90607999     0.62300
F887        F  0.36116866  0.56346346  0.75034309    -0.22900
F888        F  0.29973543  0.56513989  0.75594910    -0.20200
F889        F  0.33239588  0.51815800  0.78073306    -0.19900
F890        F  0.34269134  0.68309864  0.89565563    -0.19900
F891        F  0.37617732  0.63956485  0.92543191    -0.20300
F892        F  0.31427198  0.63957857  0.92868359    -0.22900
C893        C  0.50667883  0.81937839  0.61095078    -0.05800
C894        C  0.49346467  0.85390579  0.62292406     0.00200
C895        C  0.51056102  0.88658457  0.60919318    -0.08400
C896        C  0.53811027  0.88346645  0.58209688    -0.05800
C897        C  0.55088367  0.84892970  0.56967719     0.00100
C898        C  0.53482980  0.81596432  0.58469709    -0.08300
C899        C  0.54643707  0.77665261  0.57435389     0.62100
H900        H  0.49429111  0.79448880  0.62220452     0.12800
H901        H  0.55048059  0.90837151  0.57079389     0.12800
C902        C  0.50181572  0.92471715  0.62409516     0.62300
F903        F  0.57589079  0.76581012  0.59609354    -0.22900
F904        F  0.55630205  0.77389631  0.53816325    -0.20200
F905        F  0.51779309  0.75169139  0.57977588    -0.19900
F906        F  0.49685767  0.92321030  0.66142223    -0.19900
F907        F  0.47032887  0.93847268  0.60745515    -0.20300
F908        F  0.53055772  0.94913496  0.61748543    -0.22900
C909        C  0.33047369  0.85560575  0.62017044    -0.05800
C910        C  0.36657447  0.84363133  0.61284361     0.00200
C911        C  0.37456165  0.82852677  0.57818898    -0.08400
C912        C  0.34644605  0.82739133  0.55145540    -0.05800
C913        C  0.31050542  0.83978365  0.55860421     0.00100
C914        C  0.30203918  0.85378042  0.59376148    -0.08300
C915        C  0.26421619  0.86781925  0.60514573     0.62100
H916        H  0.32439672  0.86652152  0.64699478     0.12800
H917        H  0.35236547  0.81685071  0.52447131     0.12800
C918        C  0.41255733  0.81354439  0.56944717     0.62300
F919        F  0.25287434  0.84854642  0.63581623    -0.22900
F920        F  0.23715796  0.86382147  0.57881189    -0.20200
F921        F  0.26686652  0.90512426  0.61351614    -0.19900
F922        F  0.42377111  0.78876558  0.59622892    -0.19900
F923        F  0.43726495  0.84270397  0.56742512    -0.20300
F924        F  0.41289940  0.79501877  0.53646979    -0.22900
C925        C  0.41622802  0.76437928  0.72429202    -0.05800
C926        C  0.42628419  0.80129384  0.73263519     0.00200
C927        C  0.44204093  0.80733337  0.76794047    -0.08400
C928        C  0.43966555  0.77881289  0.79455406    -0.05800
C929        C  0.42688551  0.74250575  0.78687799     0.00100
C930        C  0.41784563  0.73475582  0.74955746    -0.08300
C931        C  0.40963525  0.69657204  0.73319096     0.62100
H932        H  0.40887540  0.75760356  0.69651603     0.12800
H933        H  0.45054036  0.78487662  0.82117088     0.12800
C934        C  0.46317192  0.84222704  0.77895704     0.62300
F935        F  0.37216250  0.69392150  0.72589121    -0.22900
F936        F  0.41998479  0.66681687  0.75453818    -0.20200
F937        F  0.42856999  0.69282434  0.70070416    -0.19900
F938        F  0.43930023  0.86706537  0.79518564    -0.19900
F939        F  0.48052275  0.85891512  0.74974854    -0.20300
F940        F  0.49081691  0.83364099  0.80391541    -0.22900
C941        C  0.55679211  0.60665090  0.84007463    -0.05800
C942        C  0.54552510  0.56937766  0.84491332     0.00200
C943        C  0.50663884  0.56237329  0.84812697    -0.08400
C944        C  0.48163548  0.59228913  0.84446883    -0.05800
C945        C  0.49301138  0.62893153  0.83855126     0.00100
C946        C  0.53154239  0.63650357  0.83674148    -0.08300
C947        C  0.54671072  0.67556214  0.83138760     0.62100
H948        H  0.58610818  0.61240063  0.83852288     0.12800
H949        H  0.45218453  0.58727478  0.84609095     0.12800
C950        C  0.48997079  0.52421646  0.85458862     0.62300
F951        F  0.58406783  0.67734543  0.83947940    -0.22900
F952        F  0.52870946  0.70046436  0.85373956    -0.20200
F953        F  0.54247601  0.68632251  0.79544812    -0.19900
F954        F  0.49766345  0.51203165  0.88940453    -0.19900
F955        F  0.50326585  0.49954096  0.82954157    -0.20300
F956        F  0.45185999  0.52446344  0.85108908    -0.22900
C957        C  0.50659584  0.40083984  0.81706484    -0.05800
C958        C  0.49768172  0.38538334  0.85103254     0.00200
C959        C  0.52011943  0.39465599  0.88133696    -0.08400
C960        C  0.54726808  0.42286068  0.87777494    -0.05800
C961        C  0.55490750  0.43996099  0.84409792     0.00100
C962        C  0.53475394  0.42764144  0.81266990    -0.08300
C963        C  0.54121741  0.44295485  0.77448766     0.62100
H964        H  0.49113975  0.39134723  0.79353225     0.12800
H965        H  0.56321473  0.43144076  0.90139477     0.12800
C966        C  0.51714953  0.37304002  0.91650274     0.62300
F967        F  0.51375754  0.43213819  0.75026662    -0.22900
F968        F  0.54137931  0.48121221  0.77490280    -0.20200
F969        F  0.57435491  0.42998804  0.76109837    -0.19900
F970        F  0.51779623  0.33529652  0.90949138    -0.19900
F971        F  0.48453973  0.38195172  0.93361886    -0.20300
F972        F  0.54644024  0.38091486  0.93955127    -0.22900
C973        C  0.80983705  0.58522006  0.61533338    -0.05800
C974        C  0.77579605  0.57143395  0.62787751     0.00200
C975        C  0.74258516  0.58649966  0.61257158    -0.08400
C976        C  0.74514236  0.61383271  0.58523355    -0.05800
C977        C  0.77901068  0.62709319  0.57205750     0.00100
C978        C  0.81211618  0.61349126  0.58845446    -0.08300
C979        C  0.84973299  0.62928158  0.57908810     0.62100
H980        H  0.83494436  0.57391573  0.62723404     0.12800
H981        H  0.71980724  0.62465269  0.57335458     0.12800
C982        C  0.70340699  0.57537478  0.62286628     0.62300
F983        F  0.87604413  0.62018762  0.60522918    -0.22900
F984        F  0.84816427  0.66761162  0.57676279    -0.20200
F985        F  0.86116545  0.61489147  0.54638279    -0.19900
F986        F  0.68774111  0.60353569  0.64310113    -0.19900
F987        F  0.70149857  0.54288676  0.64242541    -0.20300
F988        F  0.68230229  0.57026153  0.59164530    -0.22900
C989        C  0.79139592  0.41674990  0.62844313    -0.05800
C990        C  0.76412224  0.44422069  0.62532491     0.00200
C991        C  0.73937674  0.44349801  0.59524167    -0.08400
C992        C  0.74203129  0.41440138  0.56987640    -0.05800
C993        C  0.76964233  0.38729312  0.57286904     0.00100
C994        C  0.79503485  0.38856999  0.60225907    -0.08300
C995        C  0.82599189  0.36054435  0.60572807     0.62100
H996        H  0.81040848  0.41807027  0.65131796     0.12800
H997        H  0.72307710  0.41298546  0.54692389     0.12800
C998        C  0.71155846  0.47413598  0.58906536     0.62300
F999        F  0.84633309  0.36577309  0.63731079    -0.22900
F1000       F  0.84965067  0.36425287  0.57655078    -0.20200
F1001       F  0.81150315  0.32500759  0.60629726    -0.19900
F1002       F  0.73029237  0.50724531  0.58451671    -0.19900
F1003       F  0.68824230  0.47628239  0.61867500    -0.20300
F1004       F  0.69011953  0.46826541  0.55821457    -0.22900
C1005       C  0.69331670  0.52458407  0.73321789    -0.05800
C1006       C  0.72761099  0.50819628  0.74257100     0.00200
C1007       C  0.72870804  0.48856225  0.77662154    -0.08400
C1008       C  0.69841675  0.49182884  0.80101660    -0.05800
C1009       C  0.66510780  0.51056166  0.79221058     0.00100
C1010       C  0.66175790  0.52380793  0.75553087    -0.08300
C1011       C  0.62574051  0.53491803  0.73666126     0.62100
H1012       H  0.69001706  0.53626455  0.70660012     0.12800
H1013       H  0.70019099  0.47810308  0.82713848     0.12800
C1014       C  0.75992961  0.46262627  0.78787688     0.62300
F1015       F  0.62101118  0.57296456  0.73867423    -0.22900
F1016       F  0.59576273  0.51690671  0.75123739    -0.20200
F1017       F  0.62629559  0.52525136  0.70013466    -0.19900
F1018       F  0.78949210  0.48312577  0.80084766    -0.19900
F1019       F  0.77049164  0.44064350  0.75894207    -0.20300
F1020       F  0.74925429  0.43866915  0.81553158    -0.22900
C1021       C  0.89431612  0.35761271  0.33477026    -0.05800
C1022       C  0.92795570  0.37631656  0.32978291     0.00200
C1023       C  0.96071259  0.36057582  0.34406566    -0.08400
C1024       C  0.95793721  0.33149624  0.36947278    -0.05800
C1025       C  0.92344301  0.31790658  0.38023279     0.00100
C1026       C  0.89175730  0.32768211  0.35950555    -0.08300
C1027       C  0.85535441  0.30722885  0.36254042     0.62100
H1028       H  0.86940380  0.36846397  0.32204478     0.12800
H1029       H  0.98227377  0.32259170  0.38455473     0.12800
C1030       C  0.99825828  0.37545208  0.33356013     0.62300
F1031       F  0.82690323  0.33198519  0.36875523    -0.22900
F1032       F  0.85581958  0.28095715  0.39015442    -0.20200
F1033       F  0.84839064  0.28923670  0.32998234    -0.19900
F1034       F  0.00274935  0.41153817  0.34554763    -0.19900
F1035       F  0.00158686  0.37457939  0.29603419    -0.20300
F1036       F  0.02610825  0.35395574  0.34857614    -0.22900
C1037       C  0.89131591  0.65876843  0.33492398    -0.05800
C1038       C  0.92540337  0.67390546  0.34561675     0.00200
C1039       C  0.95735325  0.66399872  0.32594176    -0.08400
C1040       C  0.95627767  0.63165288  0.30457759    -0.05800
C1041       C  0.92331449  0.61139845  0.30088261     0.00100
C1042       C  0.88975659  0.62790364  0.31174492    -0.08300
C1043       C  0.85275323  0.60947911  0.30506830     0.62100
H1044       H  0.86644452  0.66721154  0.34902377     0.12800
H1045       H  0.98185959  0.62015721  0.29430442     0.12800
C1046       C  0.99298203  0.68591638  0.32840474     0.62300
F1047       F  0.82642137  0.63615747  0.29687931    -0.22900
F1048       F  0.84228224  0.59033353  0.33604970    -0.20200
F1049       F  0.85420122  0.58503463  0.27610652    -0.19900
F1050       F  0.00190662  0.69892445  0.29404130    -0.19900
F1051       F  0.02143182  0.66350779  0.34083370    -0.20300
F1052       F  0.98974636  0.71613664  0.35135737    -0.22900
C1053       C  0.91560873  0.52217624  0.54564815    -0.05800
C1054       C  0.93449458  0.52978417  0.57848492     0.00200
C1055       C  0.95477709  0.56335845  0.58225652    -0.08400
C1056       C  0.95464198  0.58828704  0.55325064    -0.05800
C1057       C  0.93292027  0.58254791  0.52215071     0.00100
C1058       C  0.91382970  0.54868080  0.51730273    -0.08300
C1059       C  0.89062959  0.54146651  0.48345369     0.62100
H1060       H  0.90065680  0.49619500  0.54316633     0.12800
H1061       H  0.96987056  0.61413832  0.55563367     0.12800
C1062       C  0.97576672  0.57408627  0.61678164     0.62300
F1063       F  0.87332057  0.50717822  0.48487055    -0.22900
F1064       F  0.91297375  0.54217217  0.45299919    -0.20200
F1065       F  0.86360919  0.56847453  0.47992577    -0.19900
F1066       F  0.99956436  0.54586837  0.62692819    -0.19900
F1067       F  0.95117523  0.58118076  0.64460929    -0.20300
F1068       F  0.99662452  0.60592462  0.61200905    -0.22900
C1069       C  0.97825492  0.29801678  0.62342579    -0.05800
C1070       C  0.94526484  0.28372765  0.60888615     0.00200
C1071       C  0.91279590  0.28640195  0.62980625    -0.08400
C1072       C  0.91146926  0.31337904  0.65748282    -0.05800
C1073       C  0.94255205  0.33543212  0.66508430     0.00100
C1074       C  0.97735938  0.32356489  0.65231530    -0.08300
C1075       C  0.01281210  0.33937413  0.66815790     0.62100
H1076       H  0.00382767  0.29320416  0.60899042     0.12800
H1077       H  0.88540280  0.32022149  0.67009021     0.12800
C1078       C  0.87932320  0.26289174  0.62057938     0.62300
F1079       F  0.04375317  0.32381674  0.65224494    -0.22900
F1080       F  0.01402104  0.33171736  0.70511286    -0.20200
F1081       F  0.01429009  0.37740023  0.66321264    -0.19900
F1082       F  0.85146813  0.26740000  0.64588122    -0.19900
F1083       F  0.88950360  0.22584499  0.62052197    -0.20300
F1084       F  0.86560487  0.27226140  0.58652012    -0.22900
C1085       C  0.34161734  0.02176670  0.38814602    -0.05800
C1086       C  0.37383744  0.00200936  0.39700029     0.00200
C1087       C  0.37571983  0.98092210  0.42957773    -0.08400
C1088       C  0.34666899  0.98378044  0.45415572    -0.05800
C1089       C  0.31465917  0.00394828  0.44563142     0.00100
C1090       C  0.31118717  0.02221480  0.41152485    -0.08300
C1091       C  0.27624712  0.04255881  0.39988402     0.62100
H1092       H  0.34051698  0.03690774  0.36257182     0.12800
H1093       H  0.34788745  0.96848395  0.47964817     0.12800
C1094       C  0.40523100  0.95179406  0.43618904     0.62300
F1095       F  0.28019544  0.05950915  0.36625506    -0.22900
F1096       F  0.26779003  0.06962423  0.42514420    -0.20200
F1097       F  0.24716354  0.01777769  0.39689880    -0.19900
F1098       F  0.43992258  0.96742142  0.43803058    -0.19900
F1099       F  0.40393999  0.92729856  0.40770268    -0.20300
F1100       F  0.39956305  0.93187382  0.46807140    -0.22900
C1101       C  0.59973961  0.03553124  0.31598066    -0.05800
C1102       C  0.57866678  0.00305349  0.31179426     0.00200
C1103       C  0.59419877  0.96869327  0.32269953    -0.08400
C1104       C  0.62513354  0.96905541  0.34591160    -0.05800
C1105       C  0.63864493  0.00285121  0.35919053     0.00100
C1106       C  0.63109588  0.03529544  0.33892645    -0.08300
C1107       C  0.65359016  0.07004311  0.34551254     0.62100
H1108       H  0.58886912  0.06166438  0.30581825     0.12800
H1109       H  0.63309705  0.94349451  0.35963541     0.12800
C1110       C  0.57540682  0.93188248  0.31569744     0.62300
F1111       F  0.64377336  0.09818092  0.32151493    -0.22900
F1112       F  0.69065605  0.06213685  0.34071437    -0.20200
F1113       F  0.64859348  0.08236051  0.38071836    -0.19900
F1114       F  0.54735282  0.93483947  0.29002777    -0.19900
F1115       F  0.56078591  0.91864533  0.34799383    -0.20300
F1116       F  0.60111916  0.90675155  0.30288411    -0.22900
C1117       C  0.46783764  0.01896936  0.56554673    -0.05800
C1118       C  0.47824129  0.02342849  0.60216934     0.00200
C1119       C  0.51599634  0.02955610  0.61125317    -0.08400
C1120       C  0.54206315  0.02729831  0.58341085    -0.05800
C1121       C  0.53194212  0.01938203  0.54728639     0.00100
C1122       C  0.49397750  0.01703371  0.53767332    -0.08300
C1123       C  0.48059945  0.01133747  0.49878538     0.62100
H1124       H  0.43883776  0.01549226  0.55893763     0.12800
H1125       H  0.57105975  0.03056402  0.59011969     0.12800
C1126       C  0.52953194  0.03756295  0.64983016     0.62300
F1127       F  0.44238234  0.01031769  0.49645798    -0.22900
F1128       F  0.49408093  0.97796687  0.48581960    -0.20200
F1129       F  0.49248348  0.04034198  0.47690344    -0.19900
F1130       F  0.52479568  0.00661384  0.67175158    -0.19900
F1131       F  0.51027930  0.06735507  0.66397605    -0.20300
F1132       F  0.56677962  0.04637618  0.65084942    -0.22900
C1133       C  0.25618650  0.04164684  0.67750803    -0.05800
C1134       C  0.27589471  0.00955069  0.68717188     0.00200
C1135       C  0.25901994  0.97445950  0.68252884    -0.08400
C1136       C  0.22738212  0.97222509  0.66013444    -0.05800
C1137       C  0.21508763  0.00382616  0.64117552     0.00100
C1138       C  0.22445869  0.03898290  0.65535188    -0.08300
C1139       C  0.20312801  0.07334292  0.64376687     0.62100
H1140       H  0.26798354  0.06857477  0.68372084     0.12800
H1141       H  0.21754447  0.94527868  0.65128122     0.12800
C1142       C  0.27679540  0.93954314  0.69773321     0.62300
F1143       F  0.21861355  0.10533724  0.65812872    -0.22900
F1144       F  0.16721485  0.07041378  0.65612583    -0.20200
F1145       F  0.20226111  0.07678338  0.60624425    -0.19900
F1146       F  0.28341738  0.94399297  0.73462500    -0.19900
F1147       F  0.30993521  0.93286052  0.68033619    -0.20300
F1148       F  0.25415000  0.90884791  0.69322827    -0.22900
C1149       C  0.26545067  0.31557939  0.98222743    -0.05800
C1150       C  0.28310772  0.31033606  0.01588688     0.00200
C1151       C  0.26640520  0.32479356  0.04744640    -0.08400
C1152       C  0.23988247  0.35293775  0.04334318    -0.05800
C1153       C  0.23025118  0.36577091  0.00848208     0.00100
C1154       C  0.23846374  0.34334563  0.97809532    -0.08300
C1155       C  0.22808933  0.35534630  0.94007979     0.62100
H1156       H  0.27770205  0.30358588  0.95807256     0.12800
H1157       H  0.23192522  0.36894914  0.06700575     0.12800
C1158       C  0.28037850  0.31555376  0.08526191     0.62300
F1159       F  0.22387065  0.32470618  0.91774202    -0.22900
F1160       F  0.25608646  0.37762353  0.92689229    -0.20200
F1161       F  0.19517841  0.37496380  0.93986612    -0.19900
F1162       F  0.29738779  0.34646040  0.10004063    -0.19900
F1163       F  0.30541441  0.28649189  0.08493424    -0.20300
F1164       F  0.25086704  0.30531666  0.10691933    -0.22900
C1165       C  0.34067310  0.63289467  0.00500400    -0.05800
C1166       C  0.37717370  0.62089423  0.01077814     0.00200
C1167       C  0.38383244  0.58350773  0.02115183    -0.08400
C1168       C  0.35434664  0.55841481  0.01970098    -0.05800
C1169       C  0.31837352  0.56976593  0.01040712     0.00100
C1170       C  0.31075027  0.60815717  0.00552036    -0.08300
C1171       C  0.27177094  0.62343625  0.00057748     0.62100
H1172       H  0.33571030  0.66195815  0.99912925     0.12800
H1173       H  0.35943796  0.52936053  0.02558043     0.12800
C1174       C  0.42134926  0.56986143  0.03429417     0.62300
F1175       F  0.27149201  0.66175869  0.99710854    -0.22900
F1176       F  0.25074078  0.61442075  0.03073373    -0.20200
F1177       F  0.25559386  0.60888966  0.96947559    -0.19900
F1178       F  0.43437960  0.59265520  0.06173289    -0.19900
F1179       F  0.44590613  0.56998251  0.00567153    -0.20300
F1180       F  0.41971457  0.53406341  0.04820201    -0.22900
C1181       C  0.62999266  0.66502337  0.96988212    -0.05800
C1182       C  0.63927147  0.65003991  0.00401045     0.00200
C1183       C  0.62830692  0.66951112  0.03547222    -0.08400
C1184       C  0.59874719  0.69464001  0.03252671    -0.05800
C1185       C  0.58212224  0.70143273  0.99857700     0.00100
C1186       C  0.60110633  0.69097700  0.96674745    -0.08300
C1187       C  0.58755665  0.70323174  0.92964406     0.62100
H1188       H  0.64017148  0.65144184  0.94561448     0.12800
H1189       H  0.58583995  0.70502553  0.05705156     0.12800
C1190       C  0.64592191  0.66276252  0.07234820     0.62300
F1191       F  0.61359137  0.69583854  0.90316634    -0.22900
F1192       F  0.58109296  0.74111037  0.92975967    -0.20200
F1193       F  0.55513069  0.68478558  0.92112521    -0.19900
F1194       F  0.66403966  0.69474452  0.08318096    -0.19900
F1195       F  0.67136294  0.63407494  0.07142112    -0.20300
F1196       F  0.61915788  0.65443151  0.09779599    -0.22900
C1197       C  0.55379431  0.41366332  0.01245291    -0.05800
C1198       C  0.54419643  0.45079643  0.00542454     0.00200
C1199       C  0.50644666  0.46050671  0.00067647    -0.08400
C1200       C  0.47978798  0.43281696  0.00477707    -0.05800
C1201       C  0.48925560  0.39570946  0.01175456     0.00100
C1202       C  0.52707364  0.38559838  0.01548014    -0.08300
C1203       C  0.53982304  0.34572586  0.02185768     0.62100
H1204       H  0.58273263  0.40661385  0.01553093     0.12800
H1205       H  0.45090668  0.44012071  0.00180848     0.12800
C1206       C  0.49361044  0.49950936  0.99100083     0.62300
F1207       F  0.57784577  0.34313750  0.02574527    -0.22900
F1208       F  0.52995955  0.32381300  0.99247636    -0.20200
F1209       F  0.52403055  0.33180305  0.05334362    -0.19900
F1210       F  0.51233863  0.51239105  0.96075245    -0.19900
F1211       F  0.49996017  0.52278837  0.02025131    -0.20300
F1212       F  0.45621345  0.50067342  0.98269053    -0.22900
loop_ 
_geom_bond_atom_site_label_1 
_geom_bond_atom_site_label_2 
_geom_bond_distance 
_geom_bond_site_symmetry_2 
_ccdc_geom_bond_type 
O1            C4   1.284       .  A
O1           Cd6   2.531   1_556  S
C2           O11   1.259       .  A
C2            O7   1.283       .  A
C2          C392   1.498       .  S
O3            C9   1.268       .  A
O3           Cd6   2.379       .  S
C4           O12   1.268       .  A
C4          C176   1.495       .  S
C5           O10   1.272       .  A
C5            O8   1.279       .  A
C5         C1198   1.475       .  S
Cd6          O13   2.495       .  S
Cd6          O12   2.434   1_554  S
Cd6          O11   2.358       .  S
Cd6           O7   2.594       .  S
Cd6          O10   2.324       .  S
Cd6           O8   2.391       .  S
C9           O13   1.272       .  A
C9         C1182   1.468       .  S
O14          C17   1.281       .  A
O14         Cd19   2.537       .  S
C15          O24   1.266       .  A
C15          O20   1.283       .  A
C15         C368   1.483       .  S
O16          C22   1.273       .  A
O16         Cd19   2.363   1_554  S
C17          O25   1.266       .  A
C17         C200   1.488       .  S
C18          O23   1.269       .  A
C18          O21   1.272       .  A
C18        C1185   1.469       .  S
Cd19         O26   2.386   1_556  S
Cd19         O25   2.385       .  S
Cd19         O24   2.382   1_556  S
Cd19         O20   2.515   1_556  S
Cd19         O23   2.385       .  S
Cd19         O21   2.496       .  S
C22          O26   1.274       .  A
C22        C1166   1.476       .  S
O27          C30   1.283       .  A
O27         Cd32   2.524       .  S
C28          O37   1.269       .  A
C28          O33   1.282       .  A
C28         C404   1.492       .  S
O29          C35   1.271       .  A
O29         Cd32   2.365       .  S
C30          O38   1.268       .  A
C30         C248   1.486       .  S
C31          O36   1.279       .  A
C31          O34   1.272       .  A
C31        C1201   1.473       .  S
Cd32         O39   2.477       .  S
Cd32         O38   2.383       .  S
Cd32         O37   2.438   1_554  S
Cd32         O33   2.513   1_554  S
Cd32         O36   2.347       .  S
Cd32         O34   2.337       .  S
C35          O39   1.273       .  A
C35        C1150   1.466       .  S
O40          C43   1.282       .  A
O40         Cd45   2.530       .  S
C41          O50   1.268       .  A
C41          O46   1.283       .  A
C41         C272   1.487       .  S
O42          C48   1.270       .  A
O42         Cd45   2.374   1_554  S
C43          O51   1.267       .  A
C43         C308   1.490       .  S
C44          O49   1.278       .  A
C44          O47   1.272       .  A
C44        C1169   1.474       .  S
Cd45         O52   2.483   1_556  S
Cd45         O51   2.410       .  S
Cd45         O50   2.381   1_556  S
Cd45         O46   2.528   1_556  S
Cd45         O49   2.368   1_556  S
Cd45         O47   2.357   1_556  S
C48          O52   1.273       .  A
C48        C1153   1.468       .  S
O53          C56   1.280       .  A
O53         Cd58   2.511   1_565  S
C54          O63   1.265       .  A
C54          O59   1.282       .  A
C54         C416   1.486       .  S
O55          C61   1.277       .  A
O55         Cd58   2.384       .  S
C56          O64   1.266       .  A
C56         C188   1.485       .  S
C57          O62   1.269       .  A
C57          O60   1.271       .  A
C57        C1134   1.465       .  S
Cd58         O65   2.347       .  S
Cd58         O64   2.412   1_545  S
Cd58         O63   2.378       .  S
Cd58         O59   2.527       .  S
Cd58         O62   2.381       .  S
Cd58         O60   2.479       .  S
C61          O65   1.269       .  A
C61        C1118   1.474       .  S
O66          C69   1.282       .  A
O66         Cd71   2.496   1_565  S
C67          O76   1.264       .  A
C67          O72   1.283       .  A
C67         C440   1.483       .  S
O68          C74   1.269       .  A
O68         Cd71   2.354       .  S
C69          O77   1.266       .  A
C69         C224   1.481       .  S
C70          O75   1.274       .  A
C70          O73   1.276       .  A
C70        C1121   1.473       .  S
Cd71         O78   2.493       .  S
Cd71         O77   2.402   1_545  S
Cd71         O76   2.375       .  S
Cd71         O72   2.523       .  S
Cd71         O75   2.352       .  S
Cd71         O73   2.347       .  S
C74          O78   1.272       .  A
C74        C1105   1.465       .  S
O79          C82   1.281       .  A
O79         Cd84   2.525       .  S
C80          O89   1.268       .  A
C80          O85   1.282       .  A
C80         C356   1.485       .  S
O81          C87   1.271       .  A
O81         Cd84   2.384       .  S
C82          O90   1.268       .  A
C82         C236   1.487       .  S
C83          O88   1.275       .  A
C83          O86   1.274       .  A
C83        C1086   1.463       .  S
Cd84         O91   2.476       .  S
Cd84         O90   2.395       .  S
Cd84         O89   2.398   1_545  S
Cd84         O85   2.506   1_545  S
Cd84         O88   2.376       .  S
Cd84         O86   2.368       .  S
C87          O91   1.272       .  A
C87        C1102   1.467       .  S
O92          C95   1.283       .  A
O92         Cd97   2.511       .  S
C93         O102   1.268       .  A
C93          O98   1.282       .  A
C93         C332   1.485       .  S
O94         C100   1.278       .  A
O94         Cd97   2.330       .  S
C95         O103   1.265       .  A
C95         C296   1.487       .  S
C96         O101   1.271   1_545  A
C96          O99   1.273       .  A
C96        C1137   1.467       .  S
Cd97        O104   2.349       .  S
Cd97        O103   2.383       .  S
Cd97        O102   2.396   1_545  S
Cd97         O98   2.510   1_545  S
Cd97        O101   2.358   1_545  S
Cd97         O99   2.486       .  S
C100        O104   1.276       .  A
C100       C1089   1.460       .  S
O105        C108   1.277       .  A
O105       Cd110   2.575       .  S
C106        O115   1.259   1_455  A
C106        O111   1.277   1_455  A
C106        C320   1.498       .  S
O107        C113   1.265       .  A
O107       Cd110   2.418       .  S
C108        O116   1.262       .  A
C108        C164   1.495       .  S
C109        O114   1.273       .  A
C109        O112   1.265       .  A
C109       C1054   1.470       .  S
Cd110       O117   2.533       .  S
Cd110       O116   2.418       .  S
Cd110       O115   2.403       .  S
Cd110       O111   2.597       .  S
Cd110       O114   2.465       .  S
Cd110       O112   2.340       .  S
C113        O117   1.269       .  A
C113       C1073   1.476       .  S
O118        C121   1.274   1_655  A
O118       Cd123   2.592       .  S
C119        O128   1.257       .  A
C119        O124   1.277       .  A
C119        C212   1.479       .  S
O120        C126   1.262       .  A
O120       Cd123   2.374       .  S
C121        O129   1.249   1_455  A
C121        C344   1.484       .  S
C122        O127   1.271       .  A
C122        O125   1.269       .  A
C122       C1057   1.463       .  S
Cd123       O130   2.524       .  S
Cd123       O129   2.413       .  S
Cd123       O128   2.346       .  S
Cd123       O124   2.575       .  S
Cd123       O127   2.472       .  S
Cd123       O125   2.317       .  S
C126        O130   1.269       .  A
C126       C1038   1.468       .  S
O131        C134   1.279       .  A
O131       Cd136   2.441       .  S
C132        O141   1.277   1_455  A
C132        O137   1.279   1_455  A
C132        C260   1.487       .  S
O133        C139   1.276       .  A
O133       Cd136   2.357       .  S
C134        O142   1.277       .  A
C134        C380   1.491       .  S
C135        O140   1.275       .  A
C135        O138   1.280       .  A
C135       C1022   1.472       .  S
Cd136       O143   2.455       .  S
Cd136       O142   2.467       .  S
Cd136       O141   2.427       .  S
Cd136       O137   2.460       .  S
Cd136       O140   2.364       .  S
Cd136       O138   2.469       .  S
C139        O143   1.280       .  A
C139       C1041   1.469       .  S
O144        C147   1.277   1_655  A
O144       Cd149   2.411       .  S
C145        O154   1.276       .  A
C145        O150   1.277       .  A
C145        C428   1.479       .  S
O146        C152   1.274       .  A
O146       Cd149   2.343       .  S
C147        O155   1.276   1_455  A
C147        C284   1.481       .  S
C148        O153   1.273       .  A
C148        O151   1.281       .  A
C148       C1025   1.470       .  S
Cd149       O156   2.477       .  S
Cd149       O155   2.435       .  S
Cd149       O154   2.420       .  S
Cd149       O150   2.416       .  S
Cd149       O153   2.350       .  S
Cd149       O151   2.468       .  S
C152        O156   1.281       .  A
C152       C1070   1.470       .  S
C157        C158   1.553       .  S
C157        C163   1.559       .  S
C157        C161   1.553       .  S
C157       C1006   1.570       .  S
C158        H165   1.086       .  S
C158        C159   1.364       .  D
C159        C974   1.503       .  S
C159        C160   1.540       .  S
C160        C164   1.547       .  S
C160        C162   1.524       .  S
C160        H166   1.112       .  S
C161        H167   1.086       .  S
C161        C162   1.365       .  D
C162        C990   1.488       .  S
C163        H168   1.073       .  S
C163        C164   1.373       .  D
C169        C170   1.537       .  S
C169        C175   1.548       .  S
C169        C173   1.554       .  S
C169       C1009   1.566       .  S
C170        H177   1.081       .  S
C170        C171   1.367       .  D
C171        C961   1.513       .  S
C171        C172   1.555       .  S
C172        C176   1.555       .  S
C172        C174   1.545       .  S
C172        H178   1.098       .  S
C173        H179   1.079       .  S
C173        C174   1.378       .  D
C174        C942   1.525       .  S
C175        H180   1.086       .  S
C175        C176   1.365       .  D
C181        C182   1.553       .  S
C181        C187   1.548       .  S
C181        C185   1.541       .  S
C181        C926   1.558       .  S
C182        H189   1.085       .  S
C182        C183   1.363       .  D
C183        C910   1.492       .  S
C183        C184   1.536       .  S
C184        C188   1.549       .  S
C184        C186   1.547       .  S
C184        H190   1.106       .  S
C185        H191   1.086       .  S
C185        C186   1.369       .  D
C186        C894   1.510       .  S
C187        H192   1.081       .  S
C187        C188   1.369       .  D
C193        C194   1.542       .  S
C193        C199   1.563       .  S
C193        C197   1.544       .  S
C193        C929   1.557       .  S
C194        H201   1.080       .  S
C194        C195   1.365       .  D
C195        C945   1.503       .  S
C195        C196   1.540       .  S
C196        C200   1.542       .  S
C196        C198   1.547       .  S
C196        H202   1.110       .  S
C197        H203   1.085       .  S
C197        C198   1.367       .  D
C198        C878   1.505       .  S
C199        H204   1.081       .  S
C199        C200   1.368       .  D
C205        C206   1.544       .  S
C205        C211   1.561       .  S
C205        C209   1.536       .  S
C205        C862   1.547       .  S
C206        H213   1.083       .  S
C206        C207   1.360       .  D
C207        C846   1.491       .  S
C207        C208   1.532       .  S
C208        C212   1.544       .  S
C208        C210   1.544       .  S
C208        H214   1.105       .  S
C209        H215   1.087       .  S
C209        C210   1.367       .  D
C210        C977   1.508       .  S
C211        H216   1.084       .  S
C211        C212   1.371       .  D
C217        C218   1.535       .  S
C217        C223   1.537       .  S
C217        C221   1.560       .  S
C217        C865   1.549       .  S
C218        H225   1.083       .  S
C218        C219   1.364       .  D
C219        C897   1.509       .  S
C219        C220   1.553       .  S
C220        C224   1.551       .  S
C220        C222   1.544       .  S
C220        H226   1.103       .  S
C221        H227   1.086       .  S
C221        C222   1.374       .  D
C222        C830   1.517       .  S
C223        H228   1.081       .  S
C223        C224   1.361       .  D
C229        C230   1.558       .  S
C229        C235   1.554       .  S
C229        C233   1.541       .  S
C229        C814   1.559       .  S
C230        H237   1.082       .  S
C230        C231   1.374       .  D
C231        C798   1.499       .  S
C231        C232   1.534       .  S
C232        C236   1.540       .  S
C232        C234   1.528       .  S
C232        H238   1.112       .  S
C233        H239   1.087       .  S
C233        C234   1.361       .  D
C234        C782   1.480       .  S
C235        H240   1.080       .  S
C235        C236   1.368       .  D
C241        C242   1.536       .  S
C241        C247   1.553       .  S
C241        C245   1.552       .  S
C241        C817   1.559       .  S
C242        H249   1.085       .  S
C242        C243   1.361       .  D
C243        C753   1.502       .  S
C243        C244   1.546       .  S
C244        C248   1.543       .  S
C244        C246   1.542       .  S
C244        H250   1.094       .  S
C245        H251   1.077       .  S
C245        C246   1.382       .  D
C246        C766   1.524       .  S
C247        H252   1.086       .  S
C247        C248   1.364       .  D
C253        C254   1.531       .  S
C253        C259   1.548       .  S
C253        C257   1.551       .  S
C253        C734   1.542       .  S
C254        H261   1.085       .  S
C254        C255   1.355       .  D
C255        C702   1.484       .  S
C255        C256   1.539       .  S
C256        C260   1.542       .  S
C256        C258   1.536       .  S
C256        H262   1.111       .  S
C257        H263   1.080       .  S
C257        C258   1.366       .  D
C258        C718   1.491       .  S
C259        H264   1.080       .  S
C259        C260   1.372       .  D
C265        C266   1.546       .  S
C265        C271   1.559       .  S
C265        C269   1.539       .  S
C265        C737   1.547       .  S
C266        H273   1.078       .  S
C266        C267   1.367       .  D
C267        C769   1.503       .  S
C267        C268   1.542       .  S
C268        C272   1.541       .  S
C268        C270   1.546       .  S
C268        H274   1.109       .  S
C269        H275   1.086       .  S
C269        C270   1.363       .  D
C270        C686   1.500       .  S
C271        H276   1.084       .  S
C271        C272   1.367       .  D
C277        C278   1.545       .  S
C277        C283   1.535       .  S
C277        C281   1.531       .  S
C277        C670   1.539       .  S
C278        H285   1.085       .  S
C278        C279   1.362       .  D
C279        C721   1.492       .  S
C279        C280   1.544       .  S
C280        C284   1.548       .  S
C280        C282   1.548       .  S
C280        H286   1.102       .  S
C281        H287   1.087       .  S
C281        C282   1.364       .  D
C282        C654   1.503       .  S
C283        H288   1.080       .  S
C283        C284   1.367       .  D
C289        C290   1.534       .  S
C289        C295   1.549       .  S
C289        C293   1.537       .  S
C289        C673   1.536       .  S
C290        H297   1.087       .  S
C290        C291   1.362       .  D
C291        C638   1.506       .  S
C291        C292   1.553       .  S
C292        C296   1.555       .  S
C292        C294   1.551       .  S
C292        H298   1.104       .  S
C293        H299   1.085       .  S
C293        C294   1.363       .  D
C294        C801   1.502       .  S
C295        H300   1.084       .  S
C295        C296   1.364       .  D
C301        C302   1.553       .  S
C301        C307   1.550       .  S
C301        C305   1.545       .  S
C301        C622   1.563       .  S
C302        H309   1.084       .  S
C302        C303   1.368       .  D
C303        C881   1.507       .  S
C303        C304   1.547       .  S
C304        C308   1.549       .  S
C304        C306   1.538       .  S
C304        H310   1.111       .  S
C305        H311   1.083       .  S
C305        C306   1.367       .  D
C306        C606   1.503       .  S
C307        H312   1.081       .  S
C307        C308   1.369       .  D
C313        C314   1.546       .  S
C313        C319   1.562       .  S
C313        C317   1.545       .  S
C313        C625   1.560       .  S
C314        H321   1.080       .  S
C314        C315   1.369       .  D
C315        C657   1.512       .  S
C315        C316   1.545       .  S
C316        C320   1.550       .  S
C316        C318   1.541       .  S
C316        H322   1.108       .  S
C317        H323   1.084       .  S
C317        C318   1.364       .  D
C318        C590   1.509       .  S
C319        H324   1.084       .  S
C319        C320   1.373       .  D
C325        C326   1.544       .  S
C325        C331   1.559       .  S
C325        C329   1.542       .  S
C325        C577   1.553       .  S
C326        H333   1.079       .  S
C326        C327   1.367       .  D
C327        C561   1.499       .  S
C327        C328   1.546       .  S
C328        C332   1.545       .  S
C328        C330   1.532       .  S
C328        H334   1.111       .  S
C329        H335   1.087       .  S
C329        C330   1.361       .  D
C330        C913   1.484       .  S
C331        H336   1.084       .  S
C331        C332   1.367       .  D
C337        C338   1.542       .  S
C337        C343   1.548       .  S
C337        C341   1.553       .  S
C337        C574   1.551       .  S
C338        H345   1.086       .  S
C338        C339   1.363       .  D
C339        C593   1.499       .  S
C339        C340   1.536       .  S
C340        C344   1.551       .  S
C340        C342   1.543       .  S
C340        H346   1.105       .  S
C341        H347   1.085       .  S
C341        C342   1.371       .  D
C342        C705   1.505       .  S
C343        H348   1.082       .  S
C343        C344   1.364       .  D
C349        C350   1.561       .  S
C349        C355   1.540       .  S
C349        C353   1.540       .  S
C349        C542   1.541       .  S
C350        H357   1.080       .  S
C350        C351   1.372       .  D
C351        C833   1.511       .  S
C351        C352   1.538       .  S
C352        C356   1.542       .  S
C352        C354   1.550       .  S
C352        H358   1.099       .  S
C353        H359   1.082       .  S
C353        C354   1.362       .  D
C354        C558   1.500       .  S
C355        H360   1.086       .  S
C355        C356   1.359       .  D
C361        C362   1.557       .  S
C361        C367   1.540       .  S
C361        C365   1.546       .  S
C361        C545   1.543       .  S
C362        H369   1.084       .  S
C362        C363   1.369       .  D
C363        C689   1.493       .  S
C363        C364   1.535       .  S
C364        C368   1.547       .  S
C364        C366   1.540       .  S
C364        H370   1.107       .  S
C365        H371   1.084       .  S
C365        C366   1.363       .  D
C366        C526   1.497       .  S
C367        H372   1.086       .  S
C367        C368   1.361       .  D
C373        C374   1.549       .  S
C373        C379   1.539       .  S
C373        C377   1.540       .  S
C373        C513   1.551       .  S
C374        H381   1.080       .  S
C374        C375   1.372       .  D
C375        C494   1.499       .  S
C375        C376   1.550       .  S
C376        C380   1.547       .  S
C376        C378   1.540       .  S
C376        H382   1.107       .  S
C377        H383   1.086       .  S
C377        C378   1.367       .  D
C378        C849   1.504       .  S
C379        H384   1.083       .  S
C379        C380   1.365       .  D
C385        C386   1.544       .  S
C385        C391   1.562       .  S
C385        C389   1.537       .  S
C385        C510   1.554       .  S
C386        H393   1.086       .  S
C386        C387   1.369       .  D
C387        C529   1.514       .  S
C387        C388   1.547       .  S
C388        C392   1.556       .  S
C388        C390   1.541       .  S
C388        H394   1.106       .  S
C389        H395   1.086       .  S
C389        C390   1.359       .  D
C390        C750   1.493       .  S
C391        H396   1.084       .  S
C391        C392   1.374       .  D
C397        C398   1.549       .  S
C397        C403   1.542       .  S
C397        C401   1.547       .  S
C397        C478   1.554       .  S
C398        H405   1.085       .  S
C398        C399   1.368       .  D
C399        C609   1.505       .  S
C399        C400   1.545       .  S
C400        C404   1.553       .  S
C400        C402   1.555       .  S
C400        H406   1.108       .  S
C401        H407   1.084       .  S
C401        C402   1.365       .  D
C402        C958   1.508       .  S
C403        H408   1.086       .  S
C403        C404   1.366       .  D
C409        C410   1.561       .  S
C409        C415   1.540       .  S
C409        C413   1.555       .  S
C409        C481   1.555       .  S
C410        H417   1.082       .  S
C410        C411   1.373       .  D
C411        C462   1.512       .  S
C411        C412   1.536       .  S
C412        C416   1.549       .  S
C412        C414   1.541       .  S
C412        H418   1.111       .  S
C413        H419   1.085       .  S
C413        C414   1.365       .  D
C414        C641   1.496       .  S
C415        H420   1.086       .  S
C415        C416   1.362       .  D
C421        C422   1.532       .  S
C421        C427   1.539       .  S
C421        C425   1.546       .  S
C421        C449   1.540       .  S
C422        H429   1.087       .  S
C422        C423   1.358       .  D
C423        C993   1.482       .  S
C423        C424   1.536       .  S
C424        C428   1.544       .  S
C424        C426   1.545       .  S
C424        H430   1.102       .  S
C425        H431   1.086       .  S
C425        C426   1.370       .  D
C426        C497   1.503       .  S
C427        H432   1.080       .  S
C427        C428   1.367       .  D
C433        C434   1.543       .  S
C433        C439   1.553       .  S
C433        C437   1.532       .  S
C433        C446   1.536       .  S
C434        H441   1.085       .  S
C434        C435   1.362       .  D
C435        C785   1.491       .  S
C435        C436   1.544       .  S
C436        C440   1.551       .  S
C436        C438   1.551       .  S
C436        H442   1.111       .  S
C437        H443   1.087       .  S
C437        C438   1.360       .  D
C438        C465   1.498       .  S
C439        H444   1.085       .  S
C439        C440   1.364       .  D
C445        C446   1.409       .  A
C445        C450   1.408       .  A
C445        H452   1.080       .  S
C446        C447   1.429       .  A
C447        C454   1.527       .  S
C447        C448   1.404       .  A
C448        C449   1.409       .  A
C448        H453   1.084       .  S
C449        C450   1.427       .  A
C450        C451   1.523       .  S
C451        F455   1.386       .  S
C451        F456   1.381       .  S
C451        F457   1.382       .  S
C454        F458   1.378       .  S
C454        F459   1.383       .  S
C454        F460   1.385       .  S
C461        C462   1.407       .  A
C461        C466   1.419       .  A
C461        H468   1.082       .  S
C462        C463   1.423       .  A
C463        C470   1.509       .  S
C463        C464   1.412       .  A
C464        C465   1.398       .  A
C464        H469   1.083       .  S
C465        C466   1.420       .  A
C466        C467   1.517       .  S
C467        F471   1.383       .  S
C467        F472   1.382       .  S
C467        F473   1.383       .  S
C470        F474   1.385       .  S
C470        F475   1.380       .  S
C470        F476   1.378       .  S
C477        C478   1.414       .  A
C477        C482   1.413       .  A
C477        H484   1.080       .  S
C478        C479   1.429       .  A
C479        C486   1.524       .  S
C479        C480   1.412       .  A
C480        C481   1.413       .  A
C480        H485   1.083       .  S
C481        C482   1.425       .  A
C482        C483   1.520       .  S
C483        F487   1.385       .  S
C483        F488   1.383       .  S
C483        F489   1.381       .  S
C486        F490   1.383       .  S
C486        F491   1.377       .  S
C486        F492   1.385       .  S
C493        C494   1.403       .  A
C493        C498   1.406       .  A
C493        H500   1.083       .  S
C494        C495   1.425       .  A
C495        C502   1.525       .  S
C495        C496   1.410       .  A
C496        C497   1.408       .  A
C496        H501   1.082       .  S
C497        C498   1.422       .  A
C498        C499   1.516       .  S
C499        F503   1.384       .  S
C499        F504   1.379       .  S
C499        F505   1.378       .  S
C502        F506   1.382       .  S
C502        F507   1.380       .  S
C502        F508   1.385       .  S
C509        C510   1.410       .  A
C509        C514   1.415       .  A
C509        H516   1.081       .  S
C510        C511   1.437       .  A
C511        C518   1.527       .  S
C511        C512   1.410       .  A
C512        C513   1.406       .  A
C512        H517   1.084       .  S
C513        C514   1.430       .  A
C514        C515   1.522       .  S
C515        F519   1.385       .  S
C515        F520   1.382       .  S
C515        F521   1.380       .  S
C518        F522   1.383       .  S
C518        F523   1.376       .  S
C518        F524   1.385       .  S
C525        C526   1.398       .  A
C525        C530   1.406       .  A
C525        H532   1.082       .  S
C526        C527   1.424       .  A
C527        C534   1.520       .  S
C527        C528   1.414       .  A
C528        C529   1.409       .  A
C528        H533   1.085       .  S
C529        C530   1.425       .  A
C530        C531   1.508       .  S
C531        F535   1.386       .  S
C531        F536   1.379       .  S
C531        F537   1.378       .  S
C534        F538   1.384       .  S
C534        F539   1.379       .  S
C534        F540   1.383       .  S
C541        C542   1.405       .  A
C541        C546   1.405       .  A
C541        H548   1.083       .  S
C542        C543   1.429       .  A
C543        C550   1.524       .  S
C543        C544   1.410       .  A
C544        C545   1.410       .  A
C544        H549   1.081       .  S
C545        C546   1.432       .  A
C546        C547   1.525       .  S
C547        F551   1.385       .  S
C547        F552   1.377       .  S
C547        F553   1.383       .  S
C550        F554   1.380       .  S
C550        F555   1.383       .  S
C550        F556   1.385       .  S
C557        C558   1.405       .  A
C557        C562   1.415       .  A
C557        H564   1.083       .  S
C558        C559   1.423       .  A
C559        C566   1.521       .  S
C559        C560   1.413       .  A
C560        C561   1.404       .  A
C560        H565   1.083       .  S
C561        C562   1.416       .  A
C562        C563   1.514       .  S
C563        F567   1.385       .  S
C563        F568   1.379       .  S
C563        F569   1.383       .  S
C566        F570   1.378       .  S
C566        F571   1.382       .  S
C566        F572   1.385       .  S
C573        C574   1.412       .  A
C573        C578   1.413       .  A
C573        H580   1.080       .  S
C574        C575   1.428       .  A
C575        C582   1.525       .  S
C575        C576   1.410       .  A
C576        C577   1.412       .  A
C576        H581   1.079       .  S
C577        C578   1.434       .  A
C578        C579   1.529       .  S
C579        F583   1.386       .  S
C579        F584   1.380       .  S
C579        F585   1.382       .  S
C582        F586   1.379       .  S
C582        F587   1.382       .  S
C582        F588   1.385       .  S
C589        C590   1.406       .  A
C589        C594   1.415       .  A
C589        H596   1.083       .  S
C590        C591   1.425       .  A
C591        C598   1.513       .  S
C591        C592   1.414       .  A
C592        C593   1.400       .  A
C592        H597   1.084       .  S
C593        C594   1.416       .  A
C594        C595   1.514       .  S
C595        F599   1.384       .  S
C595        F600   1.383       .  S
C595        F601   1.381       .  S
C598        F602   1.380       .  S
C598        F603   1.378       .  S
C598        F604   1.382       .  S
C605        C606   1.402       .  A
C605        C610   1.409       .  A
C605        H612   1.082       .  S
C606        C607   1.423       .  A
C607        C614   1.517       .  S
C607        C608   1.416       .  A
C608        C609   1.406       .  A
C608        H613   1.083       .  S
C609        C610   1.418       .  A
C610        C611   1.511       .  S
C611        F615   1.383       .  S
C611        F616   1.381       .  S
C611        F617   1.380       .  S
C614        F618   1.381       .  S
C614        F619   1.384       .  S
C614        F620   1.380       .  S
C621        C622   1.410       .  A
C621        C626   1.411       .  A
C621        H628   1.080       .  S
C622        C623   1.435       .  A
C623        C630   1.523       .  S
C623        C624   1.419       .  A
C624        C625   1.411       .  A
C624        H629   1.079       .  S
C625        C626   1.436       .  A
C626        C627   1.528       .  S
C627        F631   1.383       .  S
C627        F632   1.374       .  S
C627        F633   1.386       .  S
C630        F634   1.382       .  S
C630        F635   1.376       .  S
C630        F636   1.386       .  S
C637        C638   1.410       .  A
C637        C642   1.411       .  A
C637        H644   1.084       .  S
C638        C639   1.417       .  A
C639        C646   1.507       .  S
C639        C640   1.402       .  A
C640        C641   1.399       .  A
C640        H645   1.078       .  S
C641        C642   1.426       .  A
C642        C643   1.520       .  S
C643        F647   1.375       .  S
C643        F648   1.383       .  S
C643        F649   1.384       .  S
C646        F650   1.380       .  S
C646        F651   1.377       .  S
C646        F652   1.382       .  S
C653        C654   1.408       .  A
C653        C658   1.410       .  A
C653        H660   1.083       .  S
C654        C655   1.416       .  A
C655        C662   1.516       .  S
C655        C656   1.405       .  A
C656        C657   1.407       .  A
C656        H661   1.080       .  S
C657        C658   1.426       .  A
C658        C659   1.521       .  S
C659        F663   1.385       .  S
C659        F664   1.382       .  S
C659        F665   1.375       .  S
C662        F666   1.379       .  S
C662        F667   1.383   1_455  S
C662        F668   1.379       .  S
C669        C670   1.410       .  A
C669        C674   1.401       .  A
C669        H676   1.080       .  S
C670        C671   1.430       .  A
C671        C678   1.527       .  S
C671        C672   1.409       .  A
C672        C673   1.409       .  A
C672        H677   1.078       .  S
C673        C674   1.428       .  A
C674        C675   1.529       .  S
C675        F679   1.386       .  S
C675        F680   1.383       .  S
C675        F681   1.377       .  S
C678        F682   1.382       .  S
C678        F683   1.380       .  S
C678        F684   1.386       .  S
C685        C686   1.409       .  A
C685        C690   1.417       .  A
C685        H692   1.083       .  S
C686        C687   1.428       .  A
C687        C694   1.517       .  S
C687        C688   1.405       .  A
C688        C689   1.396       .  A
C688        H693   1.081       .  S
C689        C690   1.414       .  A
C690        C691   1.513       .  S
C691        F695   1.384       .  S
C691        F696   1.381       .  S
C691        F697   1.383       .  S
C694        F698   1.384       .  S
C694        F699   1.370       .  S
C694        F700   1.384       .  S
C701        C702   1.392       .  A
C701        C706   1.406       .  A
C701        H708   1.084       .  S
C702        C703   1.420       .  A
C703        C710   1.522       .  S
C703        C704   1.410       .  A
C704        C705   1.407       .  A
C704        H709   1.083       .  S
C705        C706   1.426       .  A
C706        C707   1.509       .  S
C707        F711   1.384   1_455  S
C707        F712   1.381       .  S
C707        F713   1.374       .  S
C710        F714   1.381       .  S
C710        F715   1.382       .  S
C710        F716   1.384       .  S
C717        C718   1.401       .  A
C717        C722   1.404       .  A
C717        H724   1.083       .  S
C718        C719   1.421       .  A
C719        C726   1.521       .  S
C719        C720   1.412       .  A
C720        C721   1.407       .  A
C720        H725   1.083       .  S
C721        C722   1.414       .  A
C722        C723   1.514       .  S
C723        F727   1.382       .  S
C723        F728   1.382       .  S
C723        F729   1.380       .  S
C726        F730   1.380       .  S
C726        F731   1.383       .  S
C726        F732   1.385       .  S
C733        C734   1.406       .  A
C733        C738   1.399       .  A
C733        H740   1.084       .  S
C734        C735   1.426       .  A
C735        C742   1.520       .  S
C735        C736   1.415       .  A
C736        C737   1.413       .  A
C736        H741   1.079       .  S
C737        C738   1.431       .  A
C738        C739   1.523       .  S
C739        F743   1.385       .  S
C739        F744   1.368       .  S
C739        F745   1.383       .  S
C742        F746   1.382       .  S
C742        F747   1.382       .  S
C742        F748   1.385       .  S
C749        C750   1.400       .  A
C749        C754   1.410       .  A
C749        H756   1.083       .  S
C750        C751   1.413       .  A
C751        C758   1.512       .  S
C751        C752   1.415       .  A
C752        C753   1.406       .  A
C752        H757   1.083       .  S
C753        C754   1.426       .  A
C754        C755   1.520       .  S
C755        F759   1.385       .  S
C755        F760   1.380       .  S
C755        F761   1.381       .  S
C758        F762   1.383       .  S
C758        F763   1.379       .  S
C758        F764   1.380       .  S
C765        C766   1.414       .  A
C765        C770   1.411       .  A
C765        H772   1.082       .  S
C766        C767   1.435       .  A
C767        C774   1.523       .  S
C767        C768   1.406       .  A
C768        C769   1.400       .  A
C768        H773   1.080       .  S
C769        C770   1.421       .  A
C770        C771   1.522       .  S
C771        F775   1.384       .  S
C771        F776   1.383       .  S
C771        F777   1.382       .  S
C774        F778   1.382       .  S
C774        F779   1.371       .  S
C774        F780   1.386       .  S
C781        C782   1.396       .  A
C781        C786   1.402       .  A
C781        H788   1.086       .  S
C782        C783   1.421       .  A
C783        C790   1.519       .  S
C783        C784   1.410       .  A
C784        C785   1.404       .  A
C784        H789   1.085       .  S
C785        C786   1.419       .  A
C786        C787   1.510       .  S
C787        F791   1.384       .  S
C787        F792   1.382       .  S
C787        F793   1.378       .  S
C790        F794   1.382       .  S
C790        F795   1.380       .  S
C790        F796   1.383       .  S
C797        C798   1.405       .  A
C797        C802   1.412       .  A
C797        H804   1.079       .  S
C798        C799   1.418       .  A
C799        C806   1.519       .  S
C799        C800   1.414       .  A
C800        C801   1.408       .  A
C800        H805   1.081       .  S
C801        C802   1.420       .  A
C802        C803   1.517       .  S
C803        F807   1.383       .  S
C803        F808   1.380       .  S
C803        F809   1.381       .  S
C806        F810   1.384       .  S
C806        F811   1.380       .  S
C806        F812   1.383       .  S
C813        C814   1.412       .  A
C813        C818   1.414       .  A
C813        H820   1.080       .  S
C814        C815   1.433       .  A
C815        C822   1.525       .  S
C815        C816   1.415       .  A
C816        C817   1.411       .  A
C816        H821   1.082       .  S
C817        C818   1.432       .  A
C818        C819   1.524       .  S
C819        F823   1.385       .  S
C819        F824   1.382       .  S
C819        F825   1.377       .  S
C822        F826   1.382       .  S
C822        F827   1.380       .  S
C822        F828   1.386       .  S
C829        C830   1.413       .  A
C829        C834   1.421       .  A
C829        H836   1.083       .  S
C830        C831   1.425       .  A
C831        C838   1.517       .  S
C831        C832   1.406       .  A
C832        C833   1.403       .  A
C832        H837   1.081       .  S
C833        C834   1.424       .  A
C834        C835   1.521       .  S
C835        F839   1.385       .  S
C835        F840   1.383       .  S
C835        F841   1.381       .  S
C838        F842   1.380       .  S
C838        F843   1.372       .  S
C838        F844   1.385       .  S
C845        C846   1.399       .  A
C845        C850   1.411       .  A
C845        H852   1.084       .  S
C846        C847   1.419       .  A
C847        C854   1.520       .  S
C847        C848   1.409       .  A
C848        C849   1.405       .  A
C848        H853   1.083       .  S
C849        C850   1.427       .  A
C850        C851   1.516       .  S
C851        F855   1.385       .  S
C851        F856   1.379       .  S
C851        F857   1.375       .  S
C854        F858   1.384       .  S
C854        F859   1.381       .  S
C854        F860   1.380       .  S
C861        C862   1.409       .  A
C861        C866   1.414       .  A
C861        H868   1.080       .  S
C862        C863   1.434       .  A
C863        C870   1.528       .  S
C863        C864   1.406       .  A
C864        C865   1.406       .  A
C864        H869   1.084       .  S
C865        C866   1.431       .  A
C866        C867   1.522       .  S
C867        F871   1.386       .  S
C867        F872   1.381       .  S
C867        F873   1.382       .  S
C870        F874   1.376       .  S
C870        F875   1.383       .  S
C870        F876   1.385       .  S
C877        C878   1.404       .  A
C877        C882   1.415       .  A
C877        H884   1.082       .  S
C878        C879   1.416       .  A
C879        C886   1.513       .  S
C879        C880   1.419       .  A
C880        C881   1.406       .  A
C880        H885   1.083       .  S
C881        C882   1.425       .  A
C882        C883   1.521       .  S
C883        F887   1.385       .  S
C883        F888   1.380       .  S
C883        F889   1.380       .  S
C886        F890   1.383       .  S
C886        F891   1.380       .  S
C886        F892   1.380       .  S
C893        C894   1.405       .  A
C893        C898   1.411       .  A
C893        H900   1.083       .  S
C894        C895   1.420       .  A
C895        C902   1.514       .  S
C895        C896   1.417       .  A
C896        C897   1.405       .  A
C896        H901   1.084       .  S
C897        C898   1.430       .  A
C898        C899   1.526       .  S
C899        F903   1.382       .  S
C899        F904   1.381       .  S
C899        F905   1.385       .  S
C902        F906   1.383       .  S
C902        F907   1.380       .  S
C902        F908   1.382       .  S
C909        C910   1.403       .  A
C909        C914   1.410       .  A
C909        H916   1.085       .  S
C910        C911   1.416       .  A
C911        C918   1.513       .  S
C911        C912   1.409       .  A
C912        C913   1.401       .  A
C912        H917   1.084       .  S
C913        C914   1.422       .  A
C914        C915   1.520       .  S
C915        F919   1.384       .  S
C915        F920   1.378       .  S
C915        F921   1.382       .  S
C918        F922   1.383       .  S
C918        F923   1.380       .  S
C918        F924   1.384       .  S
C925        C926   1.412       .  A
C925        C930   1.411       .  A
C925        H932   1.080       .  S
C926        C927   1.429       .  A
C927        C934   1.524       .  S
C927        C928   1.417       .  A
C928        C929   1.415       .  A
C928        H933   1.074       .  S
C929        C930   1.434       .  A
C930        C931   1.530       .  S
C931        F935   1.383       .  S
C931        F936   1.375       .  S
C931        F937   1.385       .  S
C934        F938   1.382       .  S
C934        F939   1.380       .  S
C934        F940   1.385       .  S
C941        C942   1.413       .  A
C941        C946   1.415       .  A
C941        H948   1.082       .  S
C942        C943   1.434       .  A
C943        C950   1.518       .  S
C943        C944   1.412       .  A
C944        C945   1.398       .  A
C944        H949   1.082       .  S
C945        C946   1.421       .  A
C946        C947   1.521       .  S
C947        F951   1.383       .  S
C947        F952   1.383       .  S
C947        F953   1.380       .  S
C950        F954   1.376       .  S
C950        F955   1.370       .  S
C950        F956   1.383       .  S
C957        C958   1.402       .  A
C957        C962   1.412       .  A
C957        H964   1.082       .  S
C958        C959   1.413       .  A
C959        C966   1.508       .  S
C959        C960   1.418       .  A
C960        C961   1.407       .  A
C960        H965   1.084       .  S
C961        C962   1.432       .  A
C962        C963   1.523       .  S
C963        F967   1.385       .  S
C963        F968   1.377       .  S
C963        F969   1.380       .  S
C966        F970   1.384       .  S
C966        F971   1.378       .  S
C966        F972   1.381       .  S
C973        C974   1.406       .  A
C973        C978   1.417       .  A
C973        H980   1.084       .  S
C974        C975   1.429       .  A
C975        C982   1.521       .  S
C975        C976   1.405       .  A
C976        C977   1.402       .  A
C976        H981   1.084       .  S
C977        C978   1.422       .  A
C978        C979   1.515       .  S
C979        F983   1.385       .  S
C979        F984   1.383       .  S
C979        F985   1.375       .  S
C982        F986   1.383       .  S
C982        F987   1.371       .  S
C982        F988   1.385       .  S
C989        C990   1.401       .  A
C989        C994   1.407       .  A
C989        H996   1.083       .  S
C990        C991   1.417       .  A
C991        C998   1.508       .  S
C991        C992   1.408       .  A
C992        C993   1.400       .  A
C992        H997   1.084       .  S
C993        C994   1.413       .  A
C994        C995   1.512       .  S
C995        F999   1.382       .  S
C995       F1000   1.380       .  S
C995       F1001   1.382       .  S
C998       F1002   1.380       .  S
C998       F1003   1.382       .  S
C998       F1004   1.385       .  S
C1005      C1006   1.413       .  A
C1005      C1010   1.409       .  A
C1005      H1012   1.068       .  S
C1006      C1007   1.433       .  A
C1007      C1014   1.519       .  S
C1007      C1008   1.424       .  A
C1008      C1009   1.416       .  A
C1008      H1013   1.078       .  S
C1009      C1010   1.430       .  A
C1010      C1011   1.524       .  S
C1011      F1015   1.382       .  S
C1011      F1016   1.373       .  S
C1011      F1017   1.386       .  S
C1014      F1018   1.382       .  S
C1014      F1019   1.382       .  S
C1014      F1020   1.385       .  S
C1021      C1022   1.402       .  A
C1021      C1026   1.409       .  A
C1021      H1028   1.084       .  S
C1022      C1023   1.410       .  A
C1023      C1030   1.511       .  S
C1023      C1024   1.403       .  A
C1024      C1025   1.398       .  A
C1024      H1029   1.084       .  S
C1025      C1026   1.415       .  A
C1026      C1027   1.512       .  S
C1027      F1031   1.382       .  S
C1027      F1032   1.383       .  S
C1027      F1033   1.383       .  S
C1030      F1034   1.382   1_655  S
C1030      F1035   1.383   1_655  S
C1030      F1036   1.381   1_655  S
C1037      C1038   1.402       .  A
C1037      C1042   1.403       .  A
C1037      H1044   1.084       .  S
C1038      C1039   1.413       .  A
C1039      C1046   1.512       .  S
C1039      C1040   1.407       .  A
C1040      C1041   1.403       .  A
C1040      H1045   1.084       .  S
C1041      C1042   1.412       .  A
C1042      C1043   1.512       .  S
C1043      F1047   1.383       .  S
C1043      F1048   1.382       .  S
C1043      F1049   1.384       .  S
C1046      F1050   1.383   1_655  S
C1046      F1051   1.382   1_655  S
C1046      F1052   1.384       .  S
C1053      C1054   1.409       .  A
C1053      C1058   1.409       .  A
C1053      H1060   1.084       .  S
C1054      C1055   1.420       .  A
C1055      C1062   1.523       .  S
C1055      C1056   1.389       .  A
C1056      C1057   1.397       .  A
C1056      H1061   1.084       .  S
C1057      C1058   1.412       .  A
C1058      C1059   1.517       .  S
C1059      F1063   1.384       .  S
C1059      F1064   1.383       .  S
C1059      F1065   1.384       .  S
C1062      F1066   1.380       .  S
C1062      F1067   1.383       .  S
C1062      F1068   1.383       .  S
C1069      C1070   1.402       .  A
C1069      C1074   1.407       .  A
C1069      H1076   1.083   1_655  S
C1070      C1071   1.410       .  A
C1071      C1078   1.514       .  S
C1071      C1072   1.409       .  A
C1072      C1073   1.403       .  A
C1072      H1077   1.081       .  S
C1073      C1074   1.413       .  A
C1074      C1075   1.516   1_655  S
C1075      F1079   1.385       .  S
C1075      F1080   1.383       .  S
C1075      F1081   1.381       .  S
C1078      F1082   1.384       .  S
C1078      F1083   1.384       .  S
C1078      F1084   1.382       .  S
C1085      C1086   1.401       .  A
C1085      C1090   1.399       .  A
C1085      H1092   1.084       .  S
C1086      C1087   1.414   1_545  A
C1087      C1094   1.514       .  S
C1087      C1088   1.393       .  A
C1088      C1089   1.400   1_565  A
C1088      H1093   1.084       .  S
C1089      C1090   1.416       .  A
C1090      C1091   1.519       .  S
C1091      F1095   1.382       .  S
C1091      F1096   1.383       .  S
C1091      F1097   1.383       .  S
C1094      F1098   1.376       .  S
C1094      F1099   1.371       .  S
C1094      F1100   1.386       .  S
C1101      C1102   1.403       .  A
C1101      C1106   1.408       .  A
C1101      H1108   1.083       .  S
C1102      C1103   1.414   1_545  A
C1103      C1110   1.511       .  S
C1103      C1104   1.402       .  A
C1104      C1105   1.399   1_565  A
C1104      H1109   1.085       .  S
C1105      C1106   1.408       .  A
C1106      C1107   1.511       .  S
C1107      F1111   1.384       .  S
C1107      F1112   1.383       .  S
C1107      F1113   1.380       .  S
C1110      F1114   1.384       .  S
C1110      F1115   1.383       .  S
C1110      F1116   1.383       .  S
C1117      C1118   1.403       .  A
C1117      C1122   1.399       .  A
C1117      H1124   1.082       .  S
C1118      C1119   1.420       .  A
C1119      C1126   1.523       .  S
C1119      C1120   1.397       .  A
C1120      C1121   1.403       .  A
C1120      H1125   1.082       .  S
C1121      C1122   1.418       .  A
C1122      C1123   1.518       .  S
C1123      F1127   1.384       .  S
C1123      F1128   1.384   1_545  S
C1123      F1129   1.384       .  S
C1126      F1130   1.382       .  S
C1126      F1131   1.383       .  S
C1126      F1132   1.384       .  S
C1133      C1134   1.401       .  A
C1133      C1138   1.405       .  A
C1133      H1140   1.083       .  S
C1134      C1135   1.413   1_545  A
C1135      C1142   1.515       .  S
C1135      C1136   1.407       .  A
C1136      C1137   1.402   1_565  A
C1136      H1141   1.083       .  S
C1137      C1138   1.410       .  A
C1138      C1139   1.516       .  S
C1139      F1143   1.385       .  S
C1139      F1144   1.382       .  S
C1139      F1145   1.382       .  S
C1142      F1146   1.383       .  S
C1142      F1147   1.383       .  S
C1142      F1148   1.384       .  S
C1149      C1150   1.399   1_556  A
C1149      C1154   1.404       .  A
C1149      H1156   1.085       .  S
C1150      C1151   1.411       .  A
C1151      C1158   1.509       .  S
C1151      C1152   1.402       .  A
C1152      C1153   1.400       .  A
C1152      H1157   1.084       .  S
C1153      C1154   1.412   1_554  A
C1154      C1155   1.504       .  S
C1155      F1159   1.384       .  S
C1155      F1160   1.380       .  S
C1155      F1161   1.384       .  S
C1158      F1162   1.382       .  S
C1158      F1163   1.384       .  S
C1158      F1164   1.383       .  S
C1165      C1166   1.403       .  A
C1165      C1170   1.401       .  A
C1165      H1172   1.082   1_554  S
C1166      C1167   1.417       .  A
C1167      C1174   1.518       .  S
C1167      C1168   1.398       .  A
C1168      C1169   1.403       .  A
C1168      H1173   1.083       .  S
C1169      C1170   1.420       .  A
C1170      C1171   1.523       .  S
C1171      F1175   1.385   1_554  S
C1171      F1176   1.384       .  S
C1171      F1177   1.384   1_554  S
C1174      F1178   1.382       .  S
C1174      F1179   1.379       .  S
C1174      F1180   1.385       .  S
C1181      C1182   1.400   1_556  A
C1181      C1186   1.406       .  A
C1181      H1188   1.084       .  S
C1182      C1183   1.412       .  A
C1183      C1190   1.510       .  S
C1183      C1184   1.404       .  A
C1184      C1185   1.400   1_554  A
C1184      H1189   1.084       .  S
C1185      C1186   1.411       .  A
C1186      C1187   1.508       .  S
C1187      F1191   1.384       .  S
C1187      F1192   1.383       .  S
C1187      F1193   1.382       .  S
C1190      F1194   1.383       .  S
C1190      F1195   1.384       .  S
C1190      F1196   1.381       .  S
C1197      C1198   1.403       .  A
C1197      C1202   1.402       .  A
C1197      H1204   1.082       .  S
C1198      C1199   1.419       .  A
C1199      C1206   1.519   1_554  S
C1199      C1200   1.394       .  A
C1200      C1201   1.401       .  A
C1200      H1205   1.082       .  S
C1201      C1202   1.421       .  A
C1202      C1203   1.524       .  S
C1203      F1207   1.384       .  S
C1203      F1208   1.383   1_554  S
C1203      F1209   1.384       .  S
C1206      F1210   1.382       .  S
C1206      F1211   1.382   1_556  S
C1206      F1212   1.385       .  S
