geometry optimzed in LAMMPS
_audit_creation_date              2020-11-30 
_audit_creation_method            'lammps2cif' 
_symmetry_space_group_name_H-M    'P1' 
_symmetry_Int_Tables_number       1 
_symmetry_cell_setting            triclinic 
loop_ 
_symmetry_equiv_pos_as_xyz 
  x,y,z 
_cell_length_a                    33.21531424 
_cell_length_b                    87.93427172158921 
_cell_length_c                    29.426678033952715 
_cell_angle_alpha                 89.52845645532939 
_cell_angle_beta                  90.74077810518061 
_cell_angle_gamma                 89.7776867381656 
loop_ 
_atom_site_label 
_atom_site_type_symbol 
_atom_site_fract_x 
_atom_site_fract_y 
_atom_site_fract_z 
_atom_site_charge 
N1          N  0.14564772  0.45997073  0.43168260    -0.02500
C2          C  0.16143296  0.46042915  0.38913897     0.00100
C3          C  0.13646604  0.46850869  0.35970209    -0.22800
C4          C  0.10414861  0.47313940  0.38425731    -0.23000
C5          C  0.11052602  0.46797599  0.42821131     0.00000
H6          H  0.14200874  0.47123184  0.32439812     0.13800
H7          H  0.07958081  0.48025669  0.37203296     0.13800
N8          N  0.41811907  0.47834578  0.17737459    -0.02500
C9          C  0.40364989  0.47920800  0.22028802     0.00100
C10         C  0.42168299  0.49090942  0.24388755    -0.22800
C11         C  0.44812226  0.49762088  0.21486871    -0.23000
C12         C  0.44584951  0.48969503  0.17457528     0.00000
H13         H  0.41486116  0.49458359  0.27795811     0.13800
H14         H  0.46683254  0.50737660  0.22212909     0.13800
N15         N  0.34677137  0.37681000  0.90276600    -0.26300
N16         N  0.33601003  0.38897171  0.87887555    -0.34200
C17         C  0.34375811  0.40152839  0.90300025     0.02000
C18         C  0.36022864  0.39719201  0.94442072     0.08100
C19         C  0.36158725  0.38138724  0.94338178    -0.05000
H20         H  0.33762116  0.41298632  0.89132401     0.08700
H21         H  0.37286646  0.37385826  0.96980386     0.09900
Cu22       Cu  0.31075716  0.38823400  0.81474762     0.44200
Cu23       Cu  0.34074739  0.35494058  0.87589903     0.42000
Cu24       Cu  0.29428335  0.35294578  0.75917687     0.43900
N25         N  0.28418601  0.38681290  0.75142344    -0.33700
N26         N  0.27718664  0.37390285  0.73012103    -0.27900
C27         C  0.25942155  0.37715400  0.68959004    -0.04000
C28         C  0.25554635  0.39286079  0.68563261     0.08200
C29         C  0.27152495  0.39853921  0.72544664     0.02000
H30         H  0.25066019  0.36879608  0.66463729     0.09600
H31         H  0.27395848  0.41037167  0.73480928     0.08700
N32         N  0.31561715  0.33426088  0.79744424    -0.35100
N33         N  0.33207116  0.33497395  0.83866968    -0.27300
C34         C  0.34163073  0.32077713  0.85281770    -0.02600
C35         C  0.33066960  0.31057958  0.81919400     0.06100
C36         C  0.31434369  0.31958796  0.78464672     0.04200
H37         H  0.35539453  0.31807560  0.88541750     0.09300
H38         H  0.30159208  0.31570469  0.75280312     0.08100
N39         N  0.44077328  0.04124215  0.41995037    -0.02500
C40         C  0.42683973  0.04207949  0.37613870     0.00100
C41         C  0.45046358  0.03330915  0.34826616    -0.22800
C42         C  0.47976339  0.02680770  0.37538393    -0.23000
C43         C  0.47307372  0.03161776  0.41930254     0.00000
H44         H  0.44572360  0.03129326  0.31236833     0.13800
H45         H  0.50214215  0.01864765  0.36471972     0.13800
N46         N  0.14379798  0.05058833  0.18940536    -0.02500
C47         C  0.15721050  0.05317721  0.23254829     0.00100
C48         C  0.12823822  0.04903989  0.26343128    -0.22800
C49         C  0.09609962  0.04359374  0.23857483    -0.23000
C50         C  0.10644696  0.04447247  0.19317725     0.00000
H51         H  0.13131096  0.04893555  0.30008359     0.13800
H52         H  0.06948839  0.03829281  0.25230799     0.13800
N53         N  0.28101574  0.13008448  0.88882848    -0.26300
N54         N  0.28424085  0.11752584  0.86478276    -0.34200
C55         C  0.27214181  0.10562575  0.88991920     0.02000
C56         C  0.26100565  0.11093631  0.93191747     0.08100
C57         C  0.26696236  0.12649308  0.93026614    -0.05000
H58         H  0.27104952  0.09397969  0.87827099     0.08700
H59         H  0.26058377  0.13460969  0.95668234     0.09900
Cu60       Cu  0.30391018  0.11720374  0.79859502     0.44200
Cu61       Cu  0.29379168  0.15134184  0.86176508     0.42000
Cu62       Cu  0.32453513  0.15264620  0.74131377     0.43900
N63         N  0.32418204  0.11850785  0.73270784    -0.33700
N64         N  0.33168851  0.13136280  0.71079961    -0.27900
C65         C  0.34528851  0.12796323  0.66902543    -0.04000
C66         C  0.34633033  0.11225450  0.66495280     0.08200
C67         C  0.33286531  0.10668651  0.70593542     0.02000
H68         H  0.35480314  0.13626690  0.64399405     0.09600
H69         H  0.33030831  0.09484736  0.71594726     0.08700
N70         N  0.31587574  0.17176514  0.78224421    -0.35100
N71         N  0.30550729  0.17114202  0.82554834    -0.27300
C72         C  0.30395257  0.18533352  0.84216446    -0.02600
C73         C  0.31360553  0.19541934  0.80782203     0.06100
C74         C  0.32090109  0.18646205  0.77027688     0.04200
H75         H  0.29662128  0.18809733  0.87684964     0.09300
H76         H  0.33009913  0.19033225  0.73702625     0.08100
N77         N  0.87992429  0.51944388  0.64750967    -0.02500
C78         C  0.85890102  0.51799982  0.68663593     0.00100
C79         C  0.86990399  0.50492397  0.70993309    -0.22800
C80         C  0.89861135  0.49793963  0.68453552    -0.23000
C81         C  0.90481856  0.50708763  0.64681208     0.00000
H82         H  0.85823448  0.50092568  0.74203627     0.13800
H83         H  0.91406269  0.48742159  0.69310565     0.13800
N84         N  0.63629123  0.54691111  0.91962487    -0.02500
C85         C  0.64514328  0.54698716  0.87452359     0.00100
C86         C  0.61698439  0.53872675  0.85024693    -0.22800
C87         C  0.58976400  0.53341209  0.88086878    -0.23000
C88         C  0.60232418  0.53840654  0.92308351     0.00000
H89         H  0.61757496  0.53609583  0.81439295     0.13800
H90         H  0.56513020  0.52573837  0.87369461     0.13800
N91         N  0.74446864  0.63401396  0.22051436    -0.26300
N92         N  0.73916936  0.62143468  0.24455409    -0.34200
C93         C  0.72486932  0.61050795  0.21727037     0.02000
C94         C  0.72089717  0.61640362  0.17379889     0.08100
C95         C  0.73359347  0.63137497  0.17699972    -0.05000
H96         H  0.71932305  0.59888646  0.22796482     0.08700
H97         H  0.73564183  0.63960393  0.14962610     0.09900
Cu98       Cu  0.75600647  0.61883414  0.31195442     0.44200
Cu99       Cu  0.76914953  0.65358567  0.24858136     0.42000
Cu100      Cu  0.80787408  0.64919207  0.36641419     0.43900
N101        N  0.78321219  0.61658285  0.37515255    -0.33700
N102        N  0.80289636  0.62766779  0.39563067    -0.27900
C103        C  0.82045678  0.62209502  0.43389201    -0.04000
C104        C  0.81142197  0.60675502  0.43718721     0.08200
C105        C  0.78778121  0.60368506  0.39942786     0.02000
H106        H  0.84003021  0.62849333  0.45621023     0.09600
H107        H  0.77642232  0.59271721  0.38919532     0.08700
N108        N  0.80895629  0.66932237  0.32876460    -0.35100
N109        N  0.79539034  0.67091545  0.28645888    -0.27300
C110        C  0.79912813  0.68557319  0.27365794    -0.02600
C111        C  0.81565676  0.69355785  0.30958009     0.06100
C112        C  0.82144561  0.68292327  0.34391807     0.04200
H113        H  0.78875555  0.69021514  0.24143125     0.09300
H114        H  0.83248365  0.68502945  0.37800100     0.08100
N115        N  0.68599983  0.97275902  0.65728069    -0.02500
C116        C  0.70838843  0.97525986  0.69568616     0.00100
C117        C  0.69707348  0.98877381  0.71551502    -0.22800
C118        C  0.66721081  0.99494300  0.68870494    -0.23000
C119        C  0.66045289  0.98494238  0.65344151     0.00000
H120        H  0.70960101  0.99368362  0.74617769     0.13800
H121        H  0.65181889  0.00561568  0.69440874     0.13800
N122        N  0.91170037  0.97543088  0.96081210    -0.02500
C123        C  0.89044451  0.97702593  0.92110094     0.00100
C124        C  0.89835262  0.99091112  0.90098348    -0.22800
C125        C  0.92526364  0.99820977  0.92883628    -0.23000
C126        C  0.93321538  0.98856695  0.96517271     0.00000
H127        H  0.88593651  0.99521125  0.86919248     0.13800
H128        H  0.93788493  0.00938485  0.92321146     0.13800
N129        N  0.84044936  0.87234246  0.22291030    -0.26300
N130        N  0.82444398  0.88492574  0.23909171    -0.34200
C131        C  0.83487238  0.89671345  0.21257812     0.02000
C132        C  0.85880614  0.89133379  0.17809232     0.08100
C133        C  0.86159729  0.87578988  0.18545694    -0.05000
H134        H  0.82652244  0.90841555  0.21862907     0.08700
H135        H  0.87872120  0.86769903  0.16603802     0.09900
Cu136      Cu  0.79258094  0.88582051  0.29889655     0.44200
Cu137      Cu  0.83431941  0.85151724  0.25533908     0.42000
Cu138      Cu  0.78271704  0.85142794  0.36542394     0.43900
N139        N  0.76694216  0.88514095  0.36253640    -0.33700
N140        N  0.76282492  0.87262860  0.38716211    -0.27900
C141        C  0.74593806  0.87629584  0.42704595    -0.04000
C142        C  0.73935401  0.89190807  0.42754181     0.08200
C143        C  0.75327224  0.89707249  0.38605864     0.02000
H144        H  0.73929270  0.86822583  0.45373078     0.09600
H145        H  0.75433153  0.90872483  0.37421049     0.08700
N146        N  0.80636071  0.83216147  0.33455520    -0.35100
N147        N  0.82450297  0.83229696  0.29474519    -0.27300
C148        C  0.83418634  0.81797970  0.28348388    -0.02600
C149        C  0.82180287  0.80836801  0.31782731     0.06100
C150        C  0.80431827  0.81769473  0.34971568     0.04200
H151        H  0.84829327  0.81476319  0.25202096     0.09300
H152        H  0.78985240  0.81416981  0.38078621     0.08100
C153        C  0.94110621  0.93896310  0.02222171    -0.04500
C154        C  0.90551337  0.93571741  0.04577344     0.09700
C155        C  0.87261550  0.94581332  0.04241366    -0.01900
C156        C  0.87540765  0.95922569  0.01619109    -0.00100
C157        C  0.91064300  0.96245429  0.99149266    -0.03700
C158        C  0.94367104  0.95226621  0.99506739     0.03300
C159        C  0.90288515  0.92239273  0.07741876     0.10100
C160        C  0.83581265  0.94240061  0.06659918     0.36000
C161        C  0.98027252  0.95517987  0.97056345     0.39500
C162        C  0.91389243  0.92423238  0.12344603    -0.04100
C163        C  0.90199556  0.91340459  0.15605244     0.03100
C164        C  0.87863070  0.90074934  0.14281564    -0.03700
C165        C  0.87117626  0.89812493  0.09613642     0.00100
C166        C  0.88337999  0.90895873  0.06345371    -0.02500
C167        C  0.93559704  0.93772499  0.13747690     0.36800
C168        C  0.84864282  0.88485723  0.08192676     0.40400
C169        C  0.91331713  0.91541742  0.20340801     0.39500
C170        C  0.87417840  0.90671091  0.01568773     0.36400
C171        C  0.97490949  0.92851911  0.02582824     0.37100
C172        C  0.84250146  0.96997780  0.01742303     0.40400
N173        N  0.92234561  0.91699146  0.24118895    -0.37700
N174        N  0.95288909  0.94850896  0.14851812    -0.39300
N175        N  0.83066975  0.87426606  0.07057613    -0.37000
N176        N  0.86695387  0.90491387  0.97753429    -0.39400
N177        N  0.80654985  0.93956648  0.08578620    -0.39200
N178        N  0.81534084  0.97810389  0.02139494    -0.36800
N179        N  0.01017982  0.95682773  0.95147155    -0.37900
N180        N  0.00182896  0.92015738  0.02870799    -0.39500
C181        C  0.76057450  0.94600585  0.77157965    -0.04500
C182        C  0.79596413  0.95408256  0.78237183     0.09700
C183        C  0.80720143  0.96648375  0.75466039    -0.01900
C184        C  0.77973484  0.97257548  0.72256757    -0.00100
C185        C  0.74160323  0.96573151  0.71571190    -0.03700
C186        C  0.73319729  0.95185187  0.73838917     0.03300
C187        C  0.81455963  0.95317221  0.82905305     0.10100
C188        C  0.84530511  0.97410914  0.76292739     0.36000
C189        C  0.69452469  0.94457354  0.73222700     0.39500
C190        C  0.85480102  0.94834370  0.83497200    -0.04100
C191        C  0.87893401  0.95456709  0.87018571     0.03100
C192        C  0.86289785  0.96584536  0.89900869    -0.03700
C193        C  0.82129581  0.96933565  0.89564650     0.00100
C194        C  0.79682635  0.96220410  0.86277911    -0.02500
C195        C  0.87243099  0.93842447  0.80146035     0.36800
C196        C  0.80471141  0.98212053  0.92006084     0.40400
C197        C  0.92157929  0.95111428  0.87165235     0.39500
C198        C  0.75421042  0.96590174  0.85957307     0.36400
C199        C  0.75108432  0.93238151  0.79725172     0.37100
C200        C  0.78909992  0.98698485  0.70076803     0.40400
N201        N  0.95559326  0.94825577  0.87128612    -0.37700
N202        N  0.88655714  0.93057644  0.77455710    -0.39300
N203        N  0.79088369  0.99255428  0.93791015    -0.37000
N204        N  0.72021029  0.96875457  0.85696175    -0.39400
N205        N  0.87571648  0.98012352  0.76960903    -0.39200
N206        N  0.79674758  0.99853158  0.68387235    -0.36800
N207        N  0.66379143  0.93854050  0.72839196    -0.37900
N208        N  0.74363054  0.92144678  0.81756455    -0.39500
C209        C  0.66003425  0.93774466  0.58905640    -0.04500
C210        C  0.69627236  0.93528574  0.56572080     0.09700
C211        C  0.72900338  0.94516624  0.57287697    -0.01900
C212        C  0.72564817  0.95744224  0.60301903    -0.00100
C213        C  0.68944293  0.96001718  0.62657924    -0.03700
C214        C  0.65659610  0.95007943  0.61933624     0.03300
C215        C  0.70064339  0.92251459  0.53272175     0.10100
C216        C  0.76617013  0.94282116  0.54833631     0.36000
C217        C  0.61959972  0.95222903  0.64398653     0.39500
C218        C  0.68494877  0.92401196  0.48815870    -0.04100
C219        C  0.69541263  0.91336599  0.45464395     0.03100
C220        C  0.72322026  0.90151332  0.46487014    -0.03700
C221        C  0.73746662  0.89967439  0.51019313     0.00100
C222        C  0.72532448  0.90992225  0.54411520    -0.02500
C223        C  0.65948121  0.93692732  0.47628348     0.36800
C224        C  0.76703519  0.88803708  0.52161509     0.40400
C225        C  0.67746853  0.91468556  0.40955430     0.39500
C226        C  0.73967033  0.90797546  0.59060312     0.36400
C227        C  0.62649518  0.92748252  0.58214180     0.37100
C228        C  0.75881198  0.96798627  0.60654548     0.40400
N229        N  0.66313670  0.91572752  0.37359723    -0.37700
N230        N  0.63925055  0.94725058  0.46681271    -0.39300
N231        N  0.79085842  0.87885681  0.53098862    -0.37000
N232        N  0.75095098  0.90649676  0.62775634    -0.39400
N233        N  0.79577115  0.94087435  0.52886395    -0.39200
N234        N  0.78593982  0.97618923  0.60647248    -0.36800
N235        N  0.58991373  0.95367208  0.66367280    -0.37900
N236        N  0.59972519  0.91929491  0.57654016    -0.39500
C237        C  0.84696431  0.76734447  0.34949847    -0.04500
C238        C  0.82400902  0.75938318  0.31684529     0.09700
C239        C  0.80045778  0.76750058  0.28456137    -0.01900
C240        C  0.80020173  0.78352071  0.28453522    -0.00100
C241        C  0.82267067  0.79151668  0.31762685    -0.03700
C242        C  0.84596322  0.78338727  0.35021698     0.03300
C243        C  0.82381415  0.74238914  0.31681593     0.10100
C244        C  0.77593744  0.75930953  0.25184507     0.36000
C245        C  0.86962839  0.79153450  0.38379423     0.39500
C246        C  0.79780795  0.73440027  0.34593707    -0.04100
C247        C  0.79571610  0.71841306  0.34412715     0.03100
C248        C  0.81959844  0.71031460  0.31304412    -0.03700
C249        C  0.84618434  0.71831137  0.28445936     0.00100
C250        C  0.84828233  0.73432115  0.28637528    -0.02500
C251        C  0.77248592  0.74270804  0.37702701     0.36800
C252        C  0.87190421  0.71006036  0.25366927     0.40400
C253        C  0.76777474  0.71035477  0.37307521     0.39500
C254        C  0.87534871  0.74256617  0.25684124     0.36400
C255        C  0.87173694  0.75898091  0.38212156     0.37100
C256        C  0.77607548  0.79176846  0.25099886     0.40400
N257        N  0.74548888  0.70389971  0.39610416    -0.37700
N258        N  0.75229812  0.74935784  0.40178891    -0.39300
N259        N  0.89259308  0.70350992  0.22919085    -0.37000
N260        N  0.89683843  0.74921032  0.23331736    -0.39400
N261        N  0.75628154  0.75274400  0.22591374    -0.39200
N262        N  0.75695424  0.79836367  0.22417642    -0.36800
N263        N  0.88853223  0.79803201  0.41058032    -0.37900
N264        N  0.89153577  0.75226819  0.40804108    -0.39500
C265        C  0.66239809  0.59010319  0.09533394    -0.04500
C266        C  0.68924117  0.58854583  0.05889544     0.09700
C267        C  0.72512230  0.59707812  0.05840739    -0.01900
C268        C  0.73474164  0.60677650  0.09497684    -0.00100
C269        C  0.70879839  0.60775408  0.13263186    -0.03700
C270        C  0.67234207  0.59949649  0.13232675     0.03300
C271        C  0.67931186  0.57777995  0.02128786     0.10100
C272        C  0.75244925  0.59563262  0.02062939     0.36000
C273        C  0.64473394  0.60073827  0.16993979     0.39500
C274        C  0.66207740  0.58329886  0.98044155    -0.04100
C275        C  0.64798088  0.57306368  0.94729455     0.03100
C276        C  0.65228274  0.55715973  0.95377544    -0.03700
C277        C  0.66936149  0.55167220  0.99518115     0.00100
C278        C  0.68318099  0.56196342  0.02846328    -0.02500
C279        C  0.65713393  0.59956283  0.97351603     0.36800
C280        C  0.67175076  0.53554588  0.00500400     0.40400
C281        C  0.62450942  0.57894563  0.90925481     0.39500
C282        C  0.70054777  0.55630360  0.07088729     0.36400
C283        C  0.62440918  0.58199298  0.09458791     0.37100
C284        C  0.77218127  0.61520777  0.09460514     0.40400
N285        N  0.60475529  0.58400336  0.88017962    -0.37700
N286        N  0.65330576  0.61253784  0.96804483    -0.39300
N287        N  0.67435767  0.52278051  0.01454550    -0.37000
N288        N  0.71424234  0.55182532  0.10481765    -0.39400
N289        N  0.77421681  0.59449354  0.99044280    -0.39200
N290        N  0.80201375  0.62196295  0.09422212    -0.36800
N291        N  0.62272548  0.60166243  0.19997028    -0.37900
N292        N  0.59414434  0.57551868  0.09373919    -0.39500
C293        C  0.81026289  0.55168528  0.74476762    -0.04500
C294        C  0.77218201  0.54558925  0.75416630     0.09700
C295        C  0.76048513  0.53160099  0.73509787    -0.01900
C296        C  0.78848730  0.52286587  0.71126732    -0.00100
C297        C  0.82764554  0.52853343  0.70368488    -0.03700
C298        C  0.83807497  0.54319436  0.71937445     0.03300
C299        C  0.74731187  0.55181149  0.79139819     0.10100
C300        C  0.72039144  0.52567037  0.74307908     0.36000
C301        C  0.87862114  0.54889732  0.71439274     0.39500
C302        C  0.71272074  0.56041233  0.78095057    -0.04100
C303        C  0.68048091  0.56061722  0.81159180     0.03100
C304        C  0.68304025  0.55221281  0.85297823    -0.03700
C305        C  0.72014866  0.54526876  0.86553040     0.00100
C306        C  0.75250201  0.54543344  0.83510188    -0.02500
C307        C  0.70898160  0.56774370  0.73676329     0.36800
C308        C  0.72383037  0.53563004  0.90544623     0.40400
C309        C  0.64303337  0.56788904  0.79758693     0.39500
C310        C  0.78952301  0.53725905  0.84626197     0.36400
C311        C  0.82155517  0.56621237  0.76396497     0.37100
C312        C  0.77782949  0.50751627  0.69789689     0.40400
N313        N  0.61325136  0.57354865  0.78537919    -0.37700
N314        N  0.70615106  0.57357643  0.70146583    -0.39300
N315        N  0.72926430  0.52739636  0.93575401    -0.37000
N316        N  0.81895361  0.53069690  0.85486788    -0.39400
N317        N  0.68841651  0.52098863  0.74941246    -0.39200
N318        N  0.76938080  0.49524062  0.68767954    -0.36800
N319        N  0.91080594  0.55377265  0.71166811    -0.37900
N320        N  0.83048394  0.57779745  0.77941769    -0.39500
C321        C  0.82852946  0.58337920  0.54521175    -0.04500
C322        C  0.85186583  0.57118945  0.52867253     0.09700
C323        C  0.86500544  0.57150979  0.48326851    -0.01900
C324        C  0.85313411  0.58351097  0.45392257    -0.00100
C325        C  0.82810088  0.59531056  0.46978840    -0.03700
C326        C  0.81695523  0.59548402  0.51591641     0.03300
C327        C  0.86016470  0.55748077  0.55801702     0.10100
C328        C  0.88998014  0.55926811  0.46646899     0.36000
C329        C  0.79243558  0.60783549  0.53282181     0.39500
C330        C  0.82959279  0.54665787  0.56468063    -0.04100
C331        C  0.83684561  0.53375258  0.59233442     0.03100
C332        C  0.87474382  0.53151436  0.61395823    -0.03700
C333        C  0.90595621  0.54200863  0.60540302     0.00100
C334        C  0.89851245  0.55504107  0.57801254    -0.02500
C335        C  0.79050150  0.54882083  0.54286967     0.36800
C336        C  0.94536044  0.53979487  0.62597505     0.40400
C337        C  0.80563807  0.52240251  0.59638534     0.39500
C338        C  0.92997274  0.56618334  0.57119947     0.36400
C339        C  0.81557550  0.58320965  0.59210432     0.37100
C340        C  0.86693067  0.58377977  0.40733721     0.40400
N341        N  0.78029948  0.51342414  0.59752605    -0.37700
N342        N  0.75931990  0.55058071  0.52557913    -0.39300
N343        N  0.97710946  0.53836716  0.64212419    -0.37000
N344        N  0.95495488  0.57512151  0.56568054    -0.39400
N345        N  0.91008378  0.54953024  0.45320960    -0.39200
N346        N  0.87795343  0.58405999  0.37019301    -0.36800
N347        N  0.77299854  0.61772745  0.54633359    -0.37900
N348        N  0.80514992  0.58298411  0.62948172    -0.39500
C349        C  0.02934918  0.00180273  0.02437250    -0.04500
C350        C  0.01415518  0.00793128  0.06477208     0.09700
C351        C  0.97292326  0.00630246  0.07455236    -0.01900
C352        C  0.94669030  0.99906156  0.04336250    -0.00100
C353        C  0.96165356  0.99300290  0.00248893    -0.03700
C354        C  0.00311152  0.99479585  0.99277512     0.03300
C355        C  0.04073357  0.01723462  0.09535582     0.10100
C356        C  0.95713386  0.01285621  0.11579682     0.36000
C357        C  0.01817817  0.99087426  0.94831267     0.39500
C358        C  0.04360887  0.03313058  0.08874046    -0.04100
C359        C  0.06529533  0.04216840  0.12013915     0.03100
C360        C  0.08553214  0.03526691  0.15751669    -0.03700
C361        C  0.08412650  0.01921851  0.16268830     0.00100
C362        C  0.06169048  0.01029323  0.13190497    -0.02500
C363        C  0.02398003  0.04015011  0.04952606     0.36800
C364        C  0.10576793  0.01181170  0.19994432     0.40400
C365        C  0.06487968  0.05856303  0.11496177     0.39500
C366        C  0.05999579  0.99392133  0.13785444     0.36400
C367        C  0.07182854  0.00331704  0.01454190     0.37100
C368        C  0.90374117  0.99983806  0.05081274     0.40400
N369        N  0.06381008  0.07163772  0.11025840    -0.37700
N370        N  0.00854486  0.04565239  0.01793880    -0.39300
N371        N  0.12289401  0.00596565  0.22984358    -0.37000
N372        N  0.05874172  0.98085288  0.14252650    -0.39400
N373        N  0.94460162  0.01813431  0.14864353    -0.39200
N374        N  0.86967556  0.00117032  0.05746660    -0.36800
N375        N  0.03018400  0.98800499  0.91262898    -0.37900
N376        N  0.10576809  0.00450833  0.00691896    -0.39500
C377        C  0.19485382  0.05818066  0.07749424    -0.04500
C378        C  0.19421907  0.07422393  0.07648152     0.09700
C379        C  0.17439866  0.08225335  0.11085754    -0.01900
C380        C  0.15694048  0.07432407  0.14722396    -0.00100
C381        C  0.15922641  0.05828625  0.14972934    -0.03700
C382        C  0.17647521  0.05019941  0.11353309     0.03300
C383        C  0.21246949  0.08287652  0.03813237     0.10100
C384        C  0.17131643  0.09870947  0.10817519     0.36000
C385        C  0.17372783  0.03380595  0.11194108     0.39500
C386        C  0.18916286  0.08620890  0.99887991    -0.04100
C387        C  0.20484375  0.09561198  0.96445244     0.03100
C388        C  0.24380856  0.10179754  0.96930211    -0.03700
C389        C  0.26684816  0.09868828  0.00894473     0.00100
C390        C  0.25145221  0.08902687  0.04297953    -0.02500
C391        C  0.14873037  0.08016568  0.99448974     0.36800
C392        C  0.30623389  0.10551383  0.01481290     0.40400
C393        C  0.18025149  0.09945703  0.92487759     0.39500
C394        C  0.27559311  0.08537707  0.08305345     0.36400
C395        C  0.21439144  0.04994881  0.04137382     0.37100
C396        C  0.13376900  0.08260508  0.18032205     0.40400
N397        N  0.16056575  0.10263373  0.89345467    -0.37700
N398        N  0.11648643  0.07532121  0.99122247    -0.39300
N399        N  0.33749430  0.11108224  0.01964802    -0.37000
N400        N  0.29485798  0.08236843  0.11494900    -0.39400
N401        N  0.16881171  0.11182109  0.10572135    -0.39200
N402        N  0.11448637  0.08931615  0.20582357    -0.36800
N403        N  0.17118667  0.02072191  0.10917990    -0.37900
N404        N  0.23011659  0.04340383  0.01257739    -0.39500
C405        C  0.51408231  0.00022968  0.49703548    -0.04500
C406        C  0.54215676  0.00816994  0.52392046     0.09700
C407        C  0.54466278  0.02416121  0.51996097    -0.01900
C408        C  0.52057126  0.03212919  0.48762381    -0.00100
C409        C  0.49360646  0.02411655  0.45914338    -0.03700
C410        C  0.49002481  0.00812147  0.46472716     0.03300
C411        C  0.57030534  0.99973106  0.55547270     0.10100
C412        C  0.57299530  0.03233198  0.54856110     0.36000
C413        C  0.46166714  0.99968743  0.43679176     0.39500
C414        C  0.60862868  0.99523418  0.54037793    -0.04100
C415        C  0.63814668  0.98994538  0.57176922     0.03100
C416        C  0.62844027  0.98788771  0.61809426    -0.03700
C417        C  0.58866776  0.99127465  0.63226023     0.00100
C418        C  0.56006288  0.99739275  0.60122858    -0.02500
C419        C  0.61808584  0.99659293  0.49252466     0.36800
C420        C  0.57747643  0.98913205  0.67941081     0.40400
C421        C  0.67926689  0.98853715  0.55669951     0.39500
C422        C  0.52043177  0.00183656  0.61660754     0.36400
C423        C  0.51054301  0.98387003  0.50212915     0.37100
C424        C  0.52533972  0.04840723  0.48241130     0.40400
N425        N  0.71168789  0.98798651  0.54291425    -0.37700
N426        N  0.62549614  0.99752497  0.45428864    -0.39300
N427        N  0.56859980  0.98751258  0.71704176    -0.37000
N428        N  0.48883435  0.00545415  0.62874632    -0.39400
N429        N  0.59568723  0.03874092  0.57153870    -0.39200
N430        N  0.52988637  0.06140645  0.47909450    -0.36800
N431        N  0.43912103  0.99301059  0.41433217    -0.37900
N432        N  0.50768419  0.97082127  0.50626453    -0.39500
C433        C  0.26962921  0.04731606  0.25371840    -0.04500
C434        C  0.27841631  0.05906792  0.28453857     0.09700
C435        C  0.24891455  0.07016740  0.29335046    -0.01900
C436        C  0.20971145  0.06880572  0.27438517    -0.00100
C437        C  0.19993548  0.05635762  0.24603299    -0.03700
C438        C  0.23026075  0.04558775  0.23608827     0.03300
C439        C  0.31561285  0.05774265  0.31383082     0.10100
C440        C  0.25873367  0.08267824  0.32322998     0.36000
C441        C  0.21995080  0.03144303  0.21399565     0.39500
C442        C  0.35247883  0.06389530  0.29968691    -0.04100
C443        C  0.38880514  0.05952275  0.32186570     0.03100
C444        C  0.38840821  0.04931911  0.35951987    -0.03700
C445        C  0.35092905  0.04384757  0.37498773     0.00100
C446        C  0.31479410  0.04821265  0.35260038    -0.02500
C447        C  0.35305800  0.07425431  0.26112765     0.36800
C448        C  0.34923230  0.03212339  0.40973089     0.40400
C449        C  0.42673737  0.06466969  0.30351916     0.39500
C450        C  0.27661905  0.04204080  0.36749883     0.36400
C451        C  0.30076472  0.03641111  0.24234136     0.37100
C452        C  0.17892028  0.07964562  0.28689112     0.40400
N453        N  0.45685636  0.06865457  0.28816640    -0.37700
N454        N  0.35350603  0.08260906  0.23054848    -0.39300
N455        N  0.34617144  0.02247516  0.43639306    -0.37000
N456        N  0.24608738  0.03714188  0.37904239    -0.39400
N457        N  0.26683492  0.09269661  0.34686372    -0.39200
N458        N  0.15468957  0.08831816  0.29784164    -0.36800
N459        N  0.21247584  0.01977540  0.19818569    -0.37900
N460        N  0.32569628  0.02779508  0.23303562    -0.39500
C461        C  0.41230691  0.08512327  0.59849870    -0.04500
C462        C  0.38877196  0.08289967  0.55885466     0.09700
C463        C  0.35247703  0.09113506  0.55270937    -0.01900
C464        C  0.33927600  0.10122779  0.58661549    -0.00100
C465        C  0.36205142  0.10297625  0.62707850    -0.03700
C466        C  0.39870581  0.09493845  0.63278790     0.03300
C467        C  0.40260628  0.07198226  0.52335159     0.10100
C468        C  0.32862049  0.08907981  0.51160363     0.36000
C469        C  0.42248514  0.09678932  0.67405431     0.39500
C470        C  0.39791836  0.05615203  0.52969186    -0.04100
C471        C  0.41214006  0.04586477  0.49681108     0.03100
C472        C  0.42938376  0.05138889  0.45626046    -0.03700
C473        C  0.43545327  0.06721966  0.45104704     0.00100
C474        C  0.42200423  0.07745236  0.48425799    -0.02500
C475        C  0.37795005  0.05048908  0.56993516     0.36800
C476        C  0.45870201  0.07292124  0.41333673     0.40400
C477        C  0.40955951  0.02968487  0.50549201     0.39500
C478        C  0.42868876  0.09365068  0.47864173     0.36400
C479        C  0.45081443  0.07742055  0.60363661     0.37100
C480        C  0.30164237  0.10944717  0.58050917     0.40400
N481        N  0.40735697  0.01681695  0.51361907    -0.37700
N482        N  0.36185116  0.04600327  0.60197891    -0.39300
N483        N  0.47821984  0.07769470  0.38428259    -0.37000
N484        N  0.43395196  0.10657798  0.47425459    -0.39400
N485        N  0.30977624  0.08742413  0.47867026    -0.39200
N486        N  0.27159659  0.11600190  0.57561478    -0.36800
N487        N  0.44131874  0.09825651  0.70707737    -0.37900
N488        N  0.48162706  0.07132410  0.60746092    -0.39500
C489        C  0.31716855  0.26916567  0.85718690    -0.04500
C490        C  0.33117073  0.26121867  0.81896839     0.09700
C491        C  0.34774850  0.26945020  0.78233926    -0.01900
C492        C  0.34898535  0.28551269  0.78318315    -0.00100
C493        C  0.33321492  0.29356365  0.82050964    -0.03700
C494        C  0.31826602  0.28523120  0.85808122     0.03300
C495        C  0.32673739  0.24422964  0.81639956     0.10100
C496        C  0.36301513  0.26134386  0.74337066     0.36000
C497        C  0.30235083  0.29309906  0.89710158     0.39500
C498        C  0.29696361  0.23785514  0.78762785    -0.04100
C499        C  0.29227614  0.22192616  0.78533458     0.03100
C500        C  0.31764444  0.21220999  0.81134228    -0.03700
C501        C  0.34688475  0.21856251  0.84081138     0.00100
C502        C  0.35148656  0.23450115  0.84324896    -0.02500
C503        C  0.27083482  0.24774293  0.76065072     0.36800
C504        C  0.37267133  0.20867449  0.86822735     0.40400
C505        C  0.26004671  0.21555541  0.75784139     0.39500
C506        C  0.38176610  0.24089127  0.87338301     0.36400
C507        C  0.30045053  0.26077504  0.89514486     0.37100
C508        C  0.36757017  0.29370403  0.74601773     0.40400
N509        N  0.23404478  0.21049190  0.73630240    -0.37700
N510        N  0.25023745  0.25567184  0.73896161    -0.39300
N511        N  0.39308221  0.20074446  0.89014578    -0.37000
N512        N  0.40574228  0.24595195  0.89774141    -0.39400
N513        N  0.37486038  0.25485055  0.71218012    -0.39200
N514        N  0.38260402  0.30019067  0.71640205    -0.36800
N515        N  0.28972751  0.29928920  0.92844799    -0.37900
N516        N  0.28732945  0.25402869  0.92542805    -0.39500
C517        C  0.56905584  0.50831604  0.00668472    -0.04500
C518        C  0.54454597  0.51682850  0.03579129     0.09700
C519        C  0.54278029  0.53284039  0.03137478    -0.01900
C520        C  0.56325514  0.54021195  0.99576989    -0.00100
C521        C  0.58616289  0.53157449  0.96523455    -0.03700
C522        C  0.59005281  0.51566052  0.97177837     0.03300
C523        C  0.51933294  0.50876456  0.06986142     0.10100
C524        C  0.51916744  0.54165112  0.06293070     0.36000
C525        C  0.61600766  0.50680535  0.94261046     0.39500
C526        C  0.53720861  0.50249644  0.10940806    -0.04100
C527        C  0.51334663  0.49489511  0.14149598     0.03100
C528        C  0.47104227  0.49394802  0.13507803    -0.03700
C529        C  0.45328433  0.50027670  0.09522187     0.00100
C530        C  0.47757691  0.50725042  0.06215473    -0.02500
C531        C  0.58004321  0.50439574  0.11782462     0.36800
C532        C  0.40999602  0.50130917  0.08984369     0.40400
C533        C  0.53233627  0.48878470  0.18246029     0.39500
C534        C  0.45946760  0.51338096  0.02067708     0.36400
C535        C  0.57184311  0.49191684  0.01201216     0.37100
C536        C  0.55919818  0.55651240  0.98953427     0.40400
N537        N  0.54763361  0.48405603  0.21521847    -0.37700
N538        N  0.61418489  0.50595706  0.12448256    -0.39300
N539        N  0.37574724  0.50288639  0.08387534    -0.37000
N540        N  0.44515806  0.51831437  0.98762700    -0.39400
N541        N  0.50030264  0.54867551  0.08810162    -0.39200
N542        N  0.55565914  0.56953664  0.98501133    -0.36800
N543        N  0.63691179  0.49979776  0.91952053    -0.37900
N544        N  0.57411655  0.47885489  0.01653245    -0.39500
C545        C  0.36767738  0.45385012  0.08799410    -0.04500
C546        C  0.39745035  0.44265345  0.08109845     0.09700
C547        C  0.43372503  0.44322549  0.10644086    -0.01900
C548        C  0.44040766  0.45503667  0.13788490    -0.00100
C549        C  0.41069825  0.46629709  0.14491559    -0.03700
C550        C  0.37367288  0.46530556  0.12077807     0.03300
C551        C  0.39030108  0.43020191  0.04730147     0.10100
C552        C  0.46407089  0.43154391  0.10032128     0.36000
C553        C  0.34124813  0.47587539  0.12922267     0.39500
C554        C  0.40930300  0.43065311  0.00469349    -0.04100
C555        C  0.40091722  0.41941568  0.97196178     0.03100
C556        C  0.37301893  0.40771099  0.98128912    -0.03700
C557        C  0.35488129  0.40701049  0.02442939     0.00100
C558        C  0.36362664  0.41818300  0.05735480    -0.02500
C559        C  0.43688707  0.44290530  0.99421075     0.36800
C560        C  0.32569135  0.39524851  0.03422613     0.40400
C561        C  0.42136921  0.41983423  0.92869647     0.39500
C562        C  0.34462749  0.41750419  0.10142772     0.36400
C563        C  0.33105692  0.45372633  0.06052719     0.37100
C564        C  0.47703776  0.45503871  0.16500163     0.40400
N565        N  0.43773275  0.42013698  0.89421780    -0.37700
N566        N  0.45894643  0.45267484  0.98599509    -0.39300
N567        N  0.30230921  0.38588840  0.04200286    -0.37000
N568        N  0.32944049  0.41703445  0.13658399    -0.39400
N569        N  0.48825744  0.42222581  0.09524513    -0.39200
N570        N  0.50618565  0.45456685  0.18691510    -0.36800
N571        N  0.31412525  0.48397076  0.13406281    -0.37900
N572        N  0.30200512  0.45366534  0.03838946    -0.39500
C573        C  0.03076085  0.46916554  0.51959038    -0.04500
C574        C  0.02758006  0.48500402  0.52616831     0.09700
C575        C  0.05380597  0.49498499  0.50374651    -0.01900
C576        C  0.08236367  0.48922169  0.47358102    -0.00100
C577        C  0.08507966  0.47336090  0.46587072    -0.03700
C578        C  0.05946149  0.46332583  0.48932781     0.03300
C579        C  0.99622421  0.49135177  0.55636970     0.10100
C580        C  0.05064373  0.51125271  0.51105346     0.36000
C581        C  0.06088617  0.44714459  0.48056010     0.39500
C582        C  0.00584302  0.49449399  0.60196400    -0.04100
C583        C  0.97662259  0.50086245  0.63031186     0.03100
C584        C  0.93690274  0.50357677  0.61366613    -0.03700
C585        C  0.92747572  0.50040223  0.56775102     0.00100
C586        C  0.95744185  0.49467541  0.53893144    -0.02500
C587        C  0.04567543  0.49081756  0.61984682     0.36800
C588        C  0.88660134  0.50175538  0.55053434     0.40400
C589        C  0.98749666  0.50441654  0.67699328     0.39500
C590        C  0.94827953  0.49187926  0.49138501     0.36400
C591        C  0.00368369  0.45896555  0.54307146     0.37100
C592        C  0.10895570  0.49969591  0.45025359     0.40400
N593        N  0.99619696  0.50724065  0.71418032    -0.37700
N594        N  0.07738724  0.48776482  0.63398889    -0.39300
N595        N  0.85438594  0.50242126  0.53523036    -0.37000
N596        N  0.94109519  0.48968994  0.45341921    -0.39400
N597        N  0.04793537  0.52420714  0.51699930    -0.39200
N598        N  0.13018863  0.50802597  0.43170259    -0.36800
N599        N  0.06146823  0.43419621  0.47388646    -0.37900
N600        N  0.98197860  0.45084844  0.56175377    -0.39500
C601        C  0.33979251  0.45091448  0.28491221    -0.04500
C602        C  0.30510187  0.45979357  0.29190820     0.09700
C603        C  0.30094247  0.47412925  0.27049784    -0.01900
C604        C  0.33258440  0.48004065  0.24478404    -0.00100
C605        C  0.36794335  0.47135330  0.23844462    -0.03700
C606        C  0.37125837  0.45666325  0.25800103     0.03300
C607        C  0.27365704  0.45490369  0.32445022     0.10100
C608        C  0.26469236  0.48312784  0.27675886     0.36000
C609        C  0.40808578  0.44795179  0.25380153     0.39500
C610        C  0.27316503  0.46139356  0.36800604    -0.04100
C611        C  0.23718282  0.46167773  0.39286510     0.03100
C612        C  0.20180499  0.45504831  0.37449488    -0.03700
C613        C  0.20438963  0.44668970  0.33353651     0.00100
C614        C  0.24027962  0.44666757  0.30861182    -0.02500
C615        C  0.30875066  0.46917327  0.38498592     0.36800
C616        C  0.16898858  0.43945883  0.31422877     0.37800
C617        C  0.23623775  0.47065982  0.43380375     0.39500
C618        C  0.24188981  0.43937838  0.26461617     0.36400
C619        C  0.34371450  0.43622734  0.30729047     0.37100
C620        C  0.32981052  0.49553830  0.22738480     0.40400
N621        N  0.23802442  0.47817987  0.46581432    -0.37700
N622        N  0.33706864  0.47541902  0.39836927    -0.39300
N623        N  0.14091136  0.43378808  0.29811061    -0.37000
N624        N  0.24337743  0.43360673  0.22947525    -0.39400
N625        N  0.23584202  0.49030834  0.28178388    -0.39200
N626        N  0.32784047  0.50787710  0.21350628    -0.36800
N627        N  0.43722011  0.44076545  0.25139751    -0.37900
N628        N  0.34666393  0.42453065  0.32536010    -0.39500
C629        C  0.17877537  0.42529694  0.49900568    -0.04500
C630        C  0.19071220  0.43167608  0.54080361     0.09700
C631        C  0.18593088  0.44745610  0.54747921    -0.01900
C632        C  0.17027402  0.45685599  0.51215630    -0.00100
C633        C  0.15953368  0.45053175  0.46956919    -0.03700
C634        C  0.16239555  0.43459998  0.46412514     0.03300
C635        C  0.20746554  0.42163482  0.57806215     0.10100
C636        C  0.19734142  0.45401753  0.59082997     0.36000
C637        C  0.14535149  0.42753139  0.42407681     0.39500
C638        C  0.24910781  0.42164409  0.58828927    -0.04100
C639        C  0.26478996  0.41217384  0.62327467     0.03100
C640        C  0.23924589  0.40211102  0.64698269    -0.03700
C641        C  0.19771232  0.40188771  0.63613846     0.00100
C642        C  0.18175928  0.41186108  0.60252734    -0.02500
C643        C  0.27583363  0.43137828  0.56260717     0.36800
C644        C  0.17113473  0.39177120  0.66063290     0.40400
C645        C  0.30734783  0.41276835  0.63483439     0.39500
C646        C  0.13869523  0.41238795  0.59377381     0.36400
C647        C  0.18340950  0.40907665  0.49189305     0.37100
C648        C  0.16611733  0.47300307  0.52004723     0.40400
N649        N  0.34122856  0.41330196  0.64434313    -0.37700
N650        N  0.29710420  0.43914781  0.54206347    -0.39300
N651        N  0.14988473  0.38368078  0.68007539    -0.37000
N652        N  0.10435593  0.41293626  0.58674842    -0.39400
N653        N  0.20662862  0.45924903  0.62534936    -0.39200
N654        N  0.16375639  0.48585731  0.52775919    -0.36800
N655        N  0.13084519  0.42149776  0.39320410    -0.37900
N656        N  0.18712412  0.39613735  0.48632865    -0.39500
loop_ 
_geom_bond_atom_site_label_1 
_geom_bond_atom_site_label_2 
_geom_bond_distance 
_geom_bond_site_symmetry_2 
_ccdc_geom_bond_type 
N1            C5   1.362       .  A
N1            C2   1.364       .  A
N1          C633   1.454       .  S
C2            C3   1.382       .  A
C2          C612   1.490       .  S
C3            C4   1.364       .  A
C3            H6   1.082       .  S
C4            C5   1.381       .  A
C4            H7   1.082       .  S
C5          C577   1.482       .  S
N8           C12   1.363       .  A
N8            C9   1.360       .  A
N8          C549   1.452       .  S
C9           C10   1.380       .  A
C9          C605   1.478       .  S
C10          C11   1.365       .  A
C10          H13   1.082       .  S
C11          C12   1.382       .  A
C11          H14   1.082       .  S
C12         C528   1.487       .  S
N15          C19   1.352       .  A
N15          N16   1.321       .  A
N15         Cu23   2.095       .  S
N16          C17   1.342       .  A
N16         Cu22   2.057       .  S
C17          C18   1.380       .  A
C17          H20   1.080       .  S
C18          C19   1.391       .  A
C18         C556   1.490       .  S
C19          H21   1.079       .  S
Cu22         N25   2.056       .  S
Cu23         N33   2.096       .  S
Cu24         N26   2.098       .  S
Cu24         N32   2.100       .  S
N25          C29   1.342       .  A
N25          N26   1.321       .  A
N26          C27   1.352       .  A
C27          C28   1.390       .  A
C27          H30   1.081       .  S
C28          C29   1.378       .  A
C28         C640   1.488       .  S
C29          H31   1.082       .  S
N32          C36   1.348       .  A
N32          N33   1.326       .  A
N33          C34   1.348       .  A
C34          C35   1.387       .  A
C34          H37   1.082       .  S
C35          C36   1.387       .  A
C35         C493   1.498       .  S
C36          H38   1.082       .  S
N39          C43   1.364       .  A
N39          C40   1.365       .  A
N39         C472   1.451       .  S
C40          C41   1.380       .  A
C40         C444   1.499       .  S
C41          C42   1.371       .  A
C41          H44   1.082       .  S
C42          C43   1.384       .  A
C42          H45   1.082       .  S
C43         C409   1.496       .  S
N46          C50   1.360       .  A
N46          C47   1.361       .  A
N46         C381   1.445       .  S
C47          C48   1.380       .  A
C47         C437   1.497       .  S
C48          C49   1.376       .  A
C48          H51   1.082       .  S
C49          C50   1.385       .  A
C49          H52   1.082       .  S
C50         C360   1.496       .  S
N53          C57   1.347       .  A
N53          N54   1.321       .  A
N53         Cu61   2.073       .  S
N54          C55   1.342       .  A
N54         Cu60   2.063       .  S
C55          C56   1.379       .  A
C55          H58   1.083       .  S
C56          C57   1.384       .  A
C56         C388   1.479       .  S
C57          H59   1.082       .  S
Cu60         N63   2.063       .  S
Cu61         N71   2.075       .  S
Cu62         N64   2.096       .  S
Cu62         N70   2.097       .  S
N63          C67   1.342       .  A
N63          N64   1.323       .  A
N64          C65   1.351       .  A
C65          C66   1.388       .  A
C65          H68   1.084       .  S
C66          C67   1.378       .  A
C66         C465   1.486       .  S
C67          H69   1.084       .  S
N70          C74   1.348       .  A
N70          N71   1.325       .  A
N71          C72   1.345       .  A
C72          C73   1.381       .  A
C72          H75   1.082       .  S
C73          C74   1.385       .  A
C73         C500   1.487       .  S
C74          H76   1.081       .  S
N77          C81   1.363       .  A
N77          C78   1.360       .  A
N77         C332   1.452       .  S
C78          C79   1.379       .  A
C78         C297   1.484       .  S
C79          C80   1.366       .  A
C79          H82   1.082       .  S
C80          C81   1.384       .  A
C80          H83   1.082       .  S
C81         C584   1.487       .  S
N84          C88   1.360       .  A
N84          C85   1.363       .  A
N84         C276   1.452       .  S
C85          C86   1.382       .  A
C85         C304   1.489       .  S
C86          C87   1.366       .  A
C86          H89   1.082       .  S
C87          C88   1.381       .  A
C87          H90   1.082       .  S
C88         C521   1.482       .  S
N91          C95   1.348       .  A
N91          N92   1.322       .  A
N91         Cu99   2.082       .  S
N92          C93   1.342       .  A
N92         Cu98   2.064       .  S
C93          C94   1.381       .  A
C93          H96   1.084       .  S
C94          C95   1.388       .  A
C94         C269   1.487       .  S
C95          H97   1.081       .  S
Cu98        N101   2.065       .  S
Cu99        N109   2.083       .  S
Cu100       N102   2.080       .  S
Cu100       N108   2.081       .  S
N101        C105   1.342       .  A
N101        N102   1.321       .  A
N102        C103   1.349       .  A
C103        C104   1.386       .  A
C103        H106   1.081       .  S
C104        C105   1.381       .  A
C104        C325   1.485       .  S
C105        H107   1.081       .  S
N108        C112   1.345       .  A
N108        N109   1.325       .  A
N109        C110   1.347       .  A
C110        C111   1.383       .  A
C110        H113   1.081       .  S
C111        C112   1.382       .  A
C111        C248   1.484       .  S
C112        H114   1.081       .  S
N115        C119   1.367       .  A
N115        C116   1.365       .  A
N115        C213   1.450       .  S
C116        C117   1.381       .  A
C116        C185   1.495       .  S
C117        C118   1.367       .  A
C117        H120   1.082       .  S
C118        C119   1.382       .  A
C118        H121   1.082   1_565  S
C119        C416   1.498       .  S
N122        C126   1.367       .  A
N122        C123   1.363       .  A
N122        C157   1.450       .  S
C123        C124   1.380       .  A
C123        C192   1.493       .  S
C124        C125   1.370       .  A
C124        H127   1.082       .  S
C125        C126   1.381       .  A
C125        H128   1.082   1_565  S
C126        C353   1.494   1_556  S
N129        C133   1.348       .  A
N129        N130   1.321       .  A
N129       Cu137   2.070       .  S
N130        C131   1.341       .  A
N130       Cu136   2.067       .  S
C131        C132   1.383       .  A
C131        H134   1.081       .  S
C132        C133   1.385       .  A
C132        C164   1.485       .  S
C133        H135   1.081       .  S
Cu136       N139   2.068       .  S
Cu137       N147   2.071       .  S
Cu138       N140   2.084       .  S
Cu138       N146   2.085       .  S
N139        C143   1.343       .  A
N139        N140   1.321       .  A
N140        C141   1.348       .  A
C141        C142   1.390       .  A
C141        H144   1.080       .  S
C142        C143   1.385       .  A
C142        C220   1.495       .  S
C143        H145   1.080       .  S
N146        C150   1.347       .  A
N146        N147   1.324       .  A
N147        C148   1.343       .  A
C148        C149   1.380       .  A
C148        H151   1.082       .  S
C149        C150   1.383       .  A
C149        C241   1.482       .  S
C150        H152   1.082       .  S
C153        C154   1.407       .  A
C153        C158   1.415   1_554  A
C153        C171   1.450       .  S
C154        C155   1.407       .  A
C154        C159   1.494       .  S
C155        C156   1.408       .  A
C155        C160   1.454       .  S
C156        C157   1.414   1_554  A
C156        C172   1.443       .  S
C157        C158   1.416       .  A
C158        C161   1.444       .  S
C159        C162   1.409       .  A
C159        C166   1.411       .  A
C160        N177   1.157       .  T
C161        N179   1.157   1_655  T
C162        C163   1.407       .  A
C162        C167   1.451       .  S
C163        C164   1.414       .  A
C163        C169   1.451       .  S
C164        C165   1.414       .  A
C165        C166   1.412       .  A
C165        C168   1.450       .  S
C166        C170   1.450       .  S
C167        N174   1.157       .  T
C168        N175   1.157       .  T
C169        N173   1.157       .  T
C170        N176   1.157   1_554  T
C171        N180   1.157   1_655  T
C172        N178   1.156       .  T
C181        C182   1.410       .  A
C181        C186   1.418       .  A
C181        C199   1.449       .  S
C182        C183   1.411       .  A
C182        C187   1.500       .  S
C183        C184   1.406       .  A
C183        C188   1.453       .  S
C184        C185   1.417       .  A
C184        C200   1.452       .  S
C185        C186   1.417       .  A
C186        C189   1.447       .  S
C187        C190   1.409       .  A
C187        C194   1.410       .  A
C188        N205   1.157       .  T
C189        N207   1.157       .  T
C190        C191   1.417       .  A
C190        C195   1.450       .  S
C191        C192   1.417       .  A
C191        C197   1.448       .  S
C192        C193   1.416       .  A
C193        C194   1.408       .  A
C193        C196   1.450       .  S
C194        C198   1.453       .  S
C195        N202   1.157       .  T
C196        N203   1.157       .  T
C197        N201   1.157       .  T
C198        N204   1.157       .  T
C199        N208   1.157       .  T
C200        N206   1.157       .  T
C209        C210   1.410       .  A
C209        C214   1.415       .  A
C209        C227   1.450       .  S
C210        C211   1.409       .  A
C210        C215   1.499       .  S
C211        C212   1.408       .  A
C211        C216   1.453       .  S
C212        C213   1.414       .  A
C212        C228   1.446       .  S
C213        C214   1.416       .  A
C214        C217   1.448       .  S
C215        C218   1.410       .  A
C215        C222   1.411       .  A
C216        N233   1.157       .  T
C217        N235   1.157       .  T
C218        C219   1.411       .  A
C218        C223   1.451       .  S
C219        C220   1.418       .  A
C219        C225   1.451       .  S
C220        C221   1.417       .  A
C221        C222   1.412       .  A
C221        C224   1.450       .  S
C222        C226   1.451       .  S
C223        N230   1.157       .  T
C224        N231   1.157       .  T
C225        N229   1.157       .  T
C226        N232   1.157       .  T
C227        N236   1.157       .  T
C228        N234   1.156       .  T
C237        C238   1.411       .  A
C237        C242   1.411       .  A
C237        C255   1.450       .  S
C238        C239   1.410       .  A
C238        C243   1.494       .  S
C239        C240   1.409       .  A
C239        C244   1.451       .  S
C240        C241   1.413       .  A
C240        C256   1.451       .  S
C241        C242   1.412       .  A
C242        C245   1.450       .  S
C243        C246   1.410       .  A
C243        C250   1.411       .  A
C244        N261   1.157       .  T
C245        N263   1.157       .  T
C246        C247   1.409       .  A
C246        C251   1.451       .  S
C247        C248   1.414       .  A
C247        C253   1.451       .  S
C248        C249   1.413       .  A
C249        C250   1.411       .  A
C249        C252   1.450       .  S
C250        C254   1.451       .  S
C251        N258   1.157       .  T
C252        N259   1.157       .  T
C253        N257   1.157       .  T
C254        N260   1.157       .  T
C255        N264   1.157       .  T
C256        N262   1.157       .  T
C265        C266   1.411       .  A
C265        C270   1.409       .  A
C265        C283   1.452       .  S
C266        C267   1.411       .  A
C266        C271   1.497       .  S
C267        C268   1.413       .  A
C267        C272   1.450       .  S
C268        C269   1.415       .  A
C268        C284   1.450       .  S
C269        C270   1.414       .  A
C270        C273   1.451       .  S
C271        C274   1.407   1_554  A
C271        C278   1.410       .  A
C272        N289   1.157   1_554  T
C273        N291   1.157       .  T
C274        C275   1.409       .  A
C274        C279   1.451       .  S
C275        C276   1.416       .  A
C275        C281   1.447       .  S
C276        C277   1.418       .  A
C277        C278   1.412   1_556  A
C277        C280   1.447   1_556  S
C278        C282   1.452       .  S
C279        N286   1.157       .  T
C280        N287   1.157       .  T
C281        N285   1.156       .  T
C282        N288   1.157       .  T
C283        N292   1.157       .  T
C284        N290   1.157       .  T
C293        C294   1.406       .  A
C293        C298   1.411       .  A
C293        C311   1.450       .  S
C294        C295   1.410       .  A
C294        C299   1.487       .  S
C295        C296   1.403       .  A
C295        C300   1.453       .  S
C296        C297   1.414       .  A
C296        C312   1.453       .  S
C297        C298   1.416       .  A
C298        C301   1.448       .  S
C299        C302   1.402       .  A
C299        C306   1.407       .  A
C300        N317   1.157       .  T
C301        N319   1.157       .  T
C302        C303   1.409       .  A
C302        C307   1.450       .  S
C303        C304   1.421       .  A
C303        C309   1.450       .  S
C304        C305   1.417       .  A
C305        C306   1.408       .  A
C305        C308   1.446       .  S
C306        C310   1.454       .  S
C307        N314   1.157       .  T
C308        N315   1.156       .  T
C309        N313   1.157       .  T
C310        N316   1.157       .  T
C311        N320   1.157       .  T
C312        N318   1.158       .  T
C321        C322   1.414       .  A
C321        C326   1.413       .  A
C321        C339   1.451       .  S
C322        C323   1.411       .  A
C322        C327   1.500       .  S
C323        C324   1.410       .  A
C323        C328   1.450       .  S
C324        C325   1.413       .  A
C324        C340   1.451       .  S
C325        C326   1.412       .  A
C326        C329   1.450       .  S
C327        C330   1.409       .  A
C327        C334   1.411       .  A
C328        N345   1.157       .  T
C329        N347   1.157       .  T
C330        C331   1.409       .  A
C330        C335   1.452       .  S
C331        C332   1.415       .  A
C331        C337   1.447       .  S
C332        C333   1.414       .  A
C333        C334   1.415       .  A
C333        C336   1.447       .  S
C334        C338   1.450       .  S
C335        N342   1.157       .  T
C336        N343   1.157       .  T
C337        N341   1.157       .  T
C338        N344   1.157       .  T
C339        N348   1.157       .  T
C340        N346   1.157       .  T
C349        C350   1.408       .  A
C349        C354   1.413   1_544  A
C349        C367   1.450       .  S
C350        C351   1.411   1_455  A
C350        C355   1.502       .  S
C351        C352   1.414   1_545  A
C351        C356   1.451       .  S
C352        C353   1.415       .  A
C352        C368   1.448       .  S
C353        C354   1.419   1_654  A
C354        C357   1.451       .  S
C355        C358   1.413       .  A
C355        C362   1.407       .  A
C356        N373   1.157       .  T
C357        N375   1.157       .  T
C358        C359   1.415       .  A
C358        C363   1.450       .  S
C359        C360   1.413       .  A
C359        C365   1.448       .  S
C360        C361   1.419       .  A
C361        C362   1.411       .  A
C361        C364   1.452       .  S
C362        C366   1.450   1_545  S
C363        N370   1.157       .  T
C364        N371   1.157       .  T
C365        N369   1.157       .  T
C366        N372   1.157       .  T
C367        N376   1.157       .  T
C368        N374   1.156   1_565  T
C377        C378   1.411       .  A
C377        C382   1.413       .  A
C377        C395   1.450       .  S
C378        C379   1.407       .  A
C378        C383   1.492       .  S
C379        C380   1.405       .  A
C379        C384   1.452       .  S
C380        C381   1.413       .  A
C380        C396   1.448       .  S
C381        C382   1.412       .  A
C382        C385   1.446       .  S
C383        C386   1.410   1_554  A
C383        C390   1.411       .  A
C384        N401   1.157       .  T
C385        N403   1.157       .  T
C386        C387   1.409       .  A
C386        C391   1.451       .  S
C387        C388   1.412       .  A
C387        C393   1.451       .  S
C388        C389   1.411   1_556  A
C389        C390   1.410       .  A
C389        C392   1.450       .  S
C390        C394   1.450       .  S
C391        N398   1.157       .  T
C392        N399   1.157       .  T
C393        N397   1.157       .  T
C394        N400   1.157       .  T
C395        N404   1.157       .  T
C396        N402   1.157       .  T
C405        C406   1.406       .  A
C405        C410   1.410       .  A
C405        C423   1.451   1_545  S
C406        C407   1.413       .  A
C406        C411   1.499   1_545  S
C407        C408   1.415       .  A
C407        C412   1.451       .  S
C408        C409   1.413       .  A
C408        C424   1.448       .  S
C409        C410   1.420       .  A
C410        C413   1.452   1_545  S
C411        C414   1.410       .  A
C411        C418   1.407       .  A
C412        N429   1.157       .  T
C413        N431   1.157       .  T
C414        C415   1.413       .  A
C414        C419   1.451       .  S
C415        C416   1.415       .  A
C415        C421   1.447       .  S
C416        C417   1.422       .  A
C417        C418   1.411       .  A
C417        C420   1.452       .  S
C418        C422   1.451   1_565  S
C419        N426   1.157       .  T
C420        N427   1.157       .  T
C421        N425   1.157       .  T
C422        N428   1.157       .  T
C423        N432   1.157       .  T
C424        N430   1.157       .  T
C433        C434   1.409       .  A
C433        C438   1.410       .  A
C433        C451   1.452       .  S
C434        C435   1.408       .  A
C434        C439   1.501       .  S
C435        C436   1.416       .  A
C435        C440   1.449       .  S
C436        C437   1.418       .  A
C436        C452   1.448       .  S
C437        C438   1.415       .  A
C438        C441   1.448       .  S
C439        C442   1.407       .  A
C439        C446   1.411       .  A
C440        N457   1.157       .  T
C441        N459   1.157       .  T
C442        C443   1.415       .  A
C442        C447   1.450       .  S
C443        C444   1.420       .  A
C443        C449   1.450       .  S
C444        C445   1.416       .  A
C445        C446   1.412       .  A
C445        C448   1.448       .  S
C446        C450   1.453       .  S
C447        N454   1.157       .  T
C448        N455   1.156       .  T
C449        N453   1.157       .  T
C450        N456   1.157       .  T
C451        N460   1.157       .  T
C452        N458   1.157       .  T
C461        C462   1.411       .  A
C461        C466   1.411       .  A
C461        C479   1.451       .  S
C462        C463   1.413       .  A
C462        C467   1.500       .  S
C463        C464   1.414       .  A
C463        C468   1.450       .  S
C464        C465   1.412       .  A
C464        C480   1.450       .  S
C465        C466   1.413       .  A
C466        C469   1.451       .  S
C467        C470   1.412       .  A
C467        C474   1.408       .  A
C468        N485   1.157       .  T
C469        N487   1.157       .  T
C470        C471   1.414       .  A
C470        C475   1.450       .  S
C471        C472   1.414       .  A
C471        C477   1.447       .  S
C472        C473   1.415       .  A
C473        C474   1.410       .  A
C473        C476   1.447       .  S
C474        C478   1.451       .  S
C475        N482   1.157       .  T
C476        N483   1.157       .  T
C477        N481   1.157       .  T
C478        N484   1.157       .  T
C479        N488   1.157       .  T
C480        N486   1.157       .  T
C489        C490   1.412       .  A
C489        C494   1.414       .  A
C489        C507   1.451       .  S
C490        C491   1.412       .  A
C490        C495   1.504       .  S
C491        C492   1.414       .  A
C491        C496   1.451       .  S
C492        C493   1.417       .  A
C492        C508   1.450       .  S
C493        C494   1.418       .  A
C494        C497   1.450       .  S
C495        C498   1.414       .  A
C495        C502   1.414       .  A
C496        N513   1.157       .  T
C497        N515   1.157       .  T
C498        C499   1.412       .  A
C498        C503   1.451       .  S
C499        C500   1.412       .  A
C499        C505   1.451       .  S
C500        C501   1.413       .  A
C501        C502   1.413       .  A
C501        C504   1.451       .  S
C502        C506   1.450       .  S
C503        N510   1.157       .  T
C504        N511   1.157       .  T
C505        N509   1.157       .  T
C506        N512   1.157       .  T
C507        N516   1.157       .  T
C508        N514   1.157       .  T
C517        C518   1.407       .  A
C517        C522   1.403   1_554  A
C517        C535   1.452       .  S
C518        C519   1.414       .  A
C518        C523   1.491       .  S
C519        C520   1.411   1_554  A
C519        C524   1.450       .  S
C520        C521   1.410       .  A
C520        C536   1.449       .  S
C521        C522   1.416       .  A
C522        C525   1.453       .  S
C523        C526   1.407       .  A
C523        C530   1.409       .  A
C524        N541   1.157       .  T
C525        N543   1.157       .  T
C526        C527   1.407       .  A
C526        C531   1.452       .  S
C527        C528   1.418       .  A
C527        C533   1.451       .  S
C528        C529   1.415       .  A
C529        C530   1.410       .  A
C529        C532   1.447       .  S
C530        C534   1.453       .  S
C531        N538   1.157       .  T
C532        N539   1.156       .  T
C533        N537   1.157       .  T
C534        N540   1.157   1_554  T
C535        N544   1.157       .  T
C536        N542   1.157       .  T
C545        C546   1.410       .  A
C545        C550   1.413       .  A
C545        C563   1.452       .  S
C546        C547   1.410       .  A
C546        C551   1.503       .  S
C547        C548   1.413       .  A
C547        C552   1.450       .  S
C548        C549   1.414       .  A
C548        C564   1.446       .  S
C549        C550   1.416       .  A
C550        C553   1.445       .  S
C551        C554   1.411       .  A
C551        C558   1.414       .  A
C552        N569   1.157       .  T
C553        N571   1.157       .  T
C554        C555   1.412   1_554  A
C554        C559   1.451   1_554  S
C555        C556   1.415       .  A
C555        C561   1.451       .  S
C556        C557   1.413   1_556  A
C557        C558   1.414       .  A
C557        C560   1.450       .  S
C558        C562   1.451       .  S
C559        N566   1.157       .  T
C560        N567   1.157       .  T
C561        N565   1.157       .  T
C562        N568   1.157       .  T
C563        N572   1.157       .  T
C564        N570   1.157       .  T
C573        C574   1.411       .  A
C573        C578   1.411       .  A
C573        C591   1.450       .  S
C574        C575   1.406       .  A
C574        C579   1.488   1_455  S
C575        C576   1.404       .  A
C575        C580   1.452       .  S
C576        C577   1.418       .  A
C576        C592   1.453       .  S
C577        C578   1.411       .  A
C578        C581   1.449       .  S
C579        C582   1.405   1_655  A
C579        C586   1.409       .  A
C580        N597   1.157       .  T
C581        N599   1.157       .  T
C582        C583   1.406   1_455  A
C582        C587   1.452       .  S
C583        C584   1.420       .  A
C583        C589   1.453       .  S
C584        C585   1.413       .  A
C585        C586   1.410       .  A
C585        C588   1.447       .  S
C586        C590   1.451       .  S
C587        N594   1.157       .  T
C588        N595   1.157       .  T
C589        N593   1.157       .  T
C590        N596   1.157       .  T
C591        N600   1.157   1_455  T
C592        N598   1.157       .  T
C601        C602   1.408       .  A
C601        C606   1.412       .  A
C601        C619   1.450       .  S
C602        C603   1.410       .  A
C602        C607   1.488       .  S
C603        C604   1.402       .  A
C603        C608   1.453       .  S
C604        C605   1.414       .  A
C604        C620   1.454       .  S
C605        C606   1.413       .  A
C606        C609   1.448       .  S
C607        C610   1.408       .  A
C607        C614   1.403       .  A
C608        N625   1.157       .  T
C609        N627   1.157       .  T
C610        C611   1.410       .  A
C610        C615   1.453       .  S
C611        C612   1.417       .  A
C611        C617   1.447       .  S
C612        C613   1.420       .  A
C613        C614   1.408       .  A
C613        C616   1.451       .  S
C614        C618   1.451       .  S
C615        N622   1.157       .  T
C616        N623   1.157       .  T
C617        N621   1.156       .  T
C618        N624   1.157       .  T
C619        N628   1.157       .  T
C620        N626   1.157       .  T
C629        C630   1.409       .  A
C629        C634   1.410       .  A
C629        C647   1.451       .  S
C630        C631   1.412       .  A
C630        C635   1.502       .  S
C631        C632   1.415       .  A
C631        C636   1.451       .  S
C632        C633   1.417       .  A
C632        C648   1.447       .  S
C633        C634   1.414       .  A
C634        C637   1.447       .  S
C635        C638   1.412       .  A
C635        C642   1.413       .  A
C636        N653   1.157       .  T
C637        N655   1.157       .  T
C638        C639   1.412       .  A
C638        C643   1.451       .  S
C639        C640   1.414       .  A
C639        C645   1.451       .  S
C640        C641   1.412       .  A
C641        C642   1.413       .  A
C641        C644   1.450       .  S
C642        C646   1.451       .  S
C643        N650   1.157       .  T
C644        N651   1.157       .  T
C645        N649   1.157       .  T
C646        N652   1.157       .  T
C647        N656   1.157       .  T
C648        N654   1.157       .  T
