geometry optimzed in LAMMPS
_audit_creation_date              2020-11-30 
_audit_creation_method            'lammps2cif' 
_symmetry_space_group_name_H-M    'P1' 
_symmetry_Int_Tables_number       1 
_symmetry_cell_setting            triclinic 
loop_ 
_symmetry_equiv_pos_as_xyz 
  x,y,z 
_cell_length_a                    48.06496057 
_cell_length_b                    48.071164469558134 
_cell_length_c                    48.075948982556504 
_cell_angle_alpha                 90.03220754398097 
_cell_angle_beta                  90.02034235962067 
_cell_angle_gamma                 89.98069181350742 
loop_ 
_atom_site_label 
_atom_site_type_symbol 
_atom_site_fract_x 
_atom_site_fract_y 
_atom_site_fract_z 
_atom_site_charge 
O1          O  0.88188227  0.35458058  0.83624557    -0.80700
C2          C  0.83387257  0.25926008  0.88702823     0.98600
O3          O  0.83013730  0.26772037  0.86253146    -0.69800
O4          O  0.81310120  0.31902042  0.86090997    -0.73400
Al5        Al  0.84228563  0.29999965  0.84296440     1.49000
C6          C  0.81259484  0.34433194  0.86741937     0.93900
O7          O  0.86535378  0.34403089  0.91290536    -0.79600
O8          O  0.92132223  0.29911178  0.87493276    -0.73200
Al9        Al  0.87323266  0.34703577  0.87424952     1.90100
O10         O  0.88824139  0.30539827  0.92117793    -0.72300
O11         O  0.88931027  0.25873604  0.85696377    -0.72100
O12         O  0.85402077  0.26782136  0.90140718    -0.77800
O13         O  0.86856434  0.27950906  0.82201302    -0.76000
O14         O  0.86741377  0.31074044  0.86807716    -1.12100
O15         O  0.84849031  0.32977301  0.81753757    -0.71300
C16         C  0.86723244  0.34794278  0.81555662     0.99400
C17         C  0.87589509  0.32691324  0.92969584     0.95800
Al18       Al  0.88662295  0.28506195  0.88697718     1.55600
O19         O  0.83480763  0.35823874  0.86968189    -0.75900
C20         C  0.88381615  0.26040786  0.83135619     1.00000
C21         C  0.92966701  0.32385481  0.87671062     0.94900
O22         O  0.91278729  0.34372284  0.88015081    -0.81300
O23         O  0.64127104  0.16245154  0.88491508    -0.80700
C24         C  0.73696648  0.11181658  0.83748018     0.98600
O25         O  0.72855046  0.13633873  0.83379637    -0.69800
O26         O  0.67738194  0.13773699  0.81636695    -0.73400
Al27       Al  0.69609876  0.15578953  0.84569517     1.49000
C28         C  0.65209627  0.13114602  0.81567516     0.93900
O29         O  0.65213659  0.08576609  0.86848684    -0.79600
O30         O  0.69661410  0.12383709  0.92472130    -0.73200
Al31       Al  0.64897353  0.12443215  0.87632447     1.90100
O32         O  0.69067526  0.07755385  0.89156037    -0.72300
O33         O  0.73711492  0.14195150  0.89296354    -0.72100
O34         O  0.72836295  0.09742740  0.85757906    -0.77800
O35         O  0.71626703  0.17681834  0.87213713    -0.76000
O36         O  0.68528175  0.13066440  0.87074417    -1.12100
O37         O  0.66618299  0.18114212  0.85163734    -0.71300
C38         C  0.64794731  0.18314047  0.87030966     0.99400
C39         C  0.66925134  0.06899768  0.87907936     0.95800
Al40       Al  0.71090859  0.11182817  0.89009653     1.55600
O41         O  0.63803105  0.12890387  0.83779276    -0.75900
C42         C  0.73532243  0.16756309  0.88749745     1.00000
C43         C  0.67181860  0.12207213  0.93291820     0.94900
O44         O  0.65205307  0.11860676  0.91591591    -0.81300
O45         O  0.83330451  0.11417192  0.64417715    -0.80700
C46         C  0.88365195  0.16117357  0.74027341     0.98600
O47         O  0.85920793  0.16502357  0.73169499    -0.69800
O48         O  0.85807477  0.18255637  0.68056474    -0.73400
Al49       Al  0.83984947  0.15326789  0.69914229     1.49000
C50         C  0.86473705  0.18324869  0.65530255     0.93900
O51         O  0.90996851  0.13027611  0.65540785    -0.79600
O52         O  0.87153642  0.07409741  0.69952238    -0.73200
Al53       Al  0.87130520  0.12259342  0.65205958     1.90100
O54         O  0.91793989  0.10707618  0.69390112    -0.72300
O55         O  0.85338192  0.10582849  0.74003099    -0.72100
O56         O  0.89802842  0.14104489  0.73165317    -0.77800
O57         O  0.81864055  0.12687976  0.71918133    -0.76000
O58         O  0.86493641  0.12812962  0.68835514    -1.12100
O59         O  0.81460984  0.14747625  0.66911406    -0.71300
C60         C  0.81264081  0.12886326  0.65080139     0.99400
C61         C  0.92662291  0.11954718  0.67254494     0.95800
Al62       Al  0.88360030  0.10863529  0.71398886     1.55600
O63         O  0.86697727  0.16114121  0.64120737    -0.75900
C64         C  0.82780043  0.11142758  0.73820389     1.00000
C65         C  0.87342634  0.06594494  0.67472104     0.94900
O66         O  0.87702111  0.08297685  0.65503012    -0.81300
O67         O  0.61312517  0.33420997  0.85697457    -0.80700
C68         C  0.66026496  0.38425113  0.76084543     0.98600
O69         O  0.66404996  0.35981764  0.76945147    -0.69800
O70         O  0.68155184  0.35883426  0.82060440    -0.73400
Al71       Al  0.65224417  0.34058977  0.80204374     1.49000
C72         C  0.68225251  0.36558657  0.84584842     0.93900
O73         O  0.62936817  0.41085742  0.84565782    -0.79600
O74         O  0.57309364  0.37249397  0.80156392    -0.73200
Al75       Al  0.62161525  0.37220142  0.84905325     1.90100
O76         O  0.60626561  0.41879142  0.80708235    -0.72300
O77         O  0.60475919  0.35407525  0.76113665    -0.72100
O78         O  0.64013732  0.39866521  0.76939829    -0.77800
O79         O  0.62581117  0.31937257  0.78204143    -0.76000
O80         O  0.62713983  0.36574430  0.81276856    -1.12100
O81         O  0.64642904  0.31543815  0.83211090    -0.71300
C82         C  0.62779045  0.31351166  0.85038368     0.99400
C83         C  0.61875178  0.42749793  0.82843882     0.95800
Al84       Al  0.60768525  0.38438487  0.78708548     1.55600
O85         O  0.66015473  0.36784572  0.85993839    -0.75900
C86         C  0.61030491  0.32849081  0.76303708     1.00000
C87         C  0.56496167  0.37441785  0.82636566     0.94900
O88         O  0.58201799  0.37798069  0.84605701    -0.81300
O89         O  0.85375277  0.38284223  0.66461149    -0.80700
C90         C  0.75801973  0.33515571  0.61412573     0.98600
O91         O  0.76661787  0.33139659  0.63857018    -0.69800
O92         O  0.81787327  0.31416527  0.63995042    -0.73400
Al93       Al  0.79903508  0.34341775  0.65799964     1.49000
C94         C  0.84317688  0.31357064  0.63342154     0.93900
O95         O  0.84289681  0.36633481  0.58794898    -0.79600
O96         O  0.79831348  0.42247933  0.62603583    -0.73200
Al97       Al  0.84605607  0.37420591  0.62661115     1.90100
O98         O  0.80426459  0.38927044  0.57976069    -0.72300
O99         O  0.75789081  0.39062127  0.64420792    -0.72100
O100        O  0.76658853  0.35525517  0.59970808    -0.77800
O101        O  0.77872932  0.36975798  0.67905463    -0.76000
O102        O  0.80975629  0.36851121  0.63287198    -1.12100
O103        O  0.82894013  0.34949272  0.68332466    -0.71300
C104        C  0.84714696  0.36819928  0.68529600     0.99400
C105        C  0.82573935  0.37687955  0.57118874     0.95800
Al106      Al  0.78406358  0.38780271  0.61406240     1.55600
O107        O  0.85714471  0.33574015  0.63113439    -0.75900
C108        C  0.75962098  0.38505801  0.66979893     1.00000
C109        C  0.82308951  0.43072955  0.62423956     0.94900
O110        O  0.84287844  0.41376898  0.62074754    -0.81300
O111        O  0.66163956  0.14233012  0.61600321    -0.80700
C112        C  0.61051987  0.23749500  0.66398703     0.98600
O113        O  0.63507885  0.22917034  0.66768051    -0.69800
O114        O  0.63678056  0.17792000  0.68474870    -0.73400
Al115      Al  0.65473112  0.19691127  0.65557941     1.49000
C116        C  0.63034520  0.15259625  0.68527055     0.93900
O117        O  0.58492322  0.15276824  0.63240340    -0.79600
O118        O  0.62287923  0.19773590  0.57651777    -0.73200
Al119      Al  0.62359986  0.14981725  0.62458983     1.90100
O120        O  0.57657463  0.19136000  0.60950276    -0.72300
O121        O  0.64071518  0.23814885  0.60858402    -0.72100
O122        O  0.59619510  0.22893654  0.64380157    -0.77800
O123        O  0.67567770  0.21736493  0.62932061    -0.76000
O124        O  0.62967411  0.18611705  0.63042115    -1.12100
O125        O  0.68023230  0.16716556  0.64944029    -0.71300
C126        C  0.68229351  0.14901179  0.63068039     0.99400
C127        C  0.56809680  0.16984549  0.62184678     0.95800
Al128      Al  0.61073552  0.21175989  0.61120198     1.55600
O129        O  0.62812829  0.13865828  0.66305561    -0.75900
C130        C  0.66633562  0.23645739  0.61407025     1.00000
C131        C  0.62118828  0.17299206  0.56813969     0.94900
O132        O  0.61776914  0.15311113  0.58499728    -0.81300
O133        O  0.11280090  0.16227815  0.64498653    -0.80700
C134        C  0.16051377  0.11108776  0.74024010     0.98600
O135        O  0.16422766  0.13563869  0.73193815    -0.69800
O136        O  0.18152407  0.13751435  0.68074402    -0.73400
Al137      Al  0.15220302  0.15534123  0.69969882     1.49000
C138        C  0.18214253  0.13120928  0.65538384     0.93900
O139        O  0.12950936  0.08560585  0.65524400    -0.79600
O140        O  0.07322347  0.12328845  0.70003076    -0.73200
Al141      Al  0.12152254  0.12425219  0.65237630     1.90100
O142        O  0.10642705  0.07709029  0.69368897    -0.72300
O143        O  0.10499873  0.14112494  0.74066000    -0.72100
O144        O  0.14041183  0.09673446  0.73154331    -0.77800
O145        O  0.12579416  0.17617113  0.72013179    -0.76000
O146        O  0.12716622  0.13025404  0.68872105    -1.12100
O147        O  0.14608787  0.18089625  0.67001110    -0.71300
C148        C  0.12740961  0.18294465  0.65176979     0.99400
C149        C  0.11892932  0.06870612  0.67221351     0.95800
Al150      Al  0.10786976  0.11121248  0.71420630     1.55600
O151        O  0.15997998  0.12897603  0.64138048    -0.75900
C152        C  0.11046301  0.16674980  0.73911155     1.00000
C153        C  0.06499240  0.12160843  0.67524185     0.94900
O154        O  0.08196581  0.11824494  0.65545125    -0.81300
O155        O  0.35342100  0.11418744  0.83615623    -0.80700
C156        C  0.25765707  0.16106534  0.88716925     0.98600
O157        O  0.26597008  0.16485480  0.86263659    -0.69800
O158        O  0.31704391  0.18253968  0.86107686    -0.73400
Al159      Al  0.29840357  0.15314215  0.84304964     1.49000
C160        C  0.34235707  0.18332568  0.86757102     0.93900
O161        O  0.34278254  0.13048731  0.91287277    -0.79600
O162        O  0.29849469  0.07406532  0.87488563    -0.73200
Al163      Al  0.34583514  0.12269781  0.87419888     1.90100
O164        O  0.30441413  0.10719240  0.92117101    -0.72300
O165        O  0.25774950  0.10560866  0.85696835    -0.72100
O166        O  0.26643482  0.14098236  0.90148891    -0.77800
O167        O  0.27828650  0.12662699  0.82205672    -0.76000
O168        O  0.30946971  0.12810681  0.86809615    -1.12100
O169        O  0.32824706  0.14737184  0.81758821    -0.71300
C170        C  0.34658667  0.12879446  0.81551329     0.99400
C171        C  0.32579276  0.11977776  0.92967403     0.95800
Al172      Al  0.28403987  0.10858909  0.88698733     1.55600
O173        O  0.35654226  0.16126810  0.86972243    -0.75900
C174        C  0.25939991  0.11110853  0.83136370     1.00000
C175        C  0.32333851  0.06599198  0.87658701     0.94900
O176        O  0.34301853  0.08308795  0.88000697    -0.81300
O177        O  0.16151499  0.35407943  0.88491064    -0.80700
C178        C  0.11072931  0.25812673  0.83800733     0.98600
O179        O  0.13519703  0.26660882  0.83414997    -0.69800
O180        O  0.13650712  0.31773567  0.81655592    -0.73400
Al181      Al  0.15467821  0.29910466  0.84586720     1.49000
C182        C  0.13002351  0.34305235  0.81584360     0.93900
O183        O  0.08478975  0.34324561  0.86875971    -0.79600
O184        O  0.12294336  0.29899396  0.92504205    -0.73200
Al185      Al  0.12346711  0.34638989  0.87648004     1.90100
O186        O  0.07660576  0.30478716  0.89193664    -0.72300
O187        O  0.14099438  0.25836593  0.89339201    -0.72100
O188        O  0.09638609  0.26686119  0.85810145    -0.77800
O189        O  0.17580602  0.27901095  0.87228989    -0.76000
O190        O  0.12965232  0.31004882  0.87098650    -1.12100
O191        O  0.18005067  0.32903450  0.85160437    -0.71300
C192        C  0.18211813  0.34738514  0.87017141     0.99400
C193        C  0.06804056  0.32617695  0.87942256     0.95800
Al194      Al  0.11086510  0.28453181  0.89049384     1.55600
O195        O  0.12786497  0.35717709  0.83793694    -0.75900
C196        C  0.16658093  0.26006994  0.88779077     1.00000
C197        C  0.12120536  0.32382295  0.93315500     0.94900
O198        O  0.11772923  0.34350742  0.91608801    -0.81300
O199        O  0.33298515  0.38297876  0.85619072    -0.80700
C200        C  0.38432740  0.33501941  0.76110401     0.98600
O201        O  0.35976008  0.33134177  0.76938313    -0.69800
O202        O  0.35796356  0.31422285  0.82062832    -0.73400
Al203      Al  0.34006053  0.34342759  0.80161245     1.49000
C204        C  0.36427821  0.31368734  0.84598639     0.93900
O205        O  0.40975387  0.36646665  0.84603502    -0.79600
O206        O  0.37202552  0.42245771  0.80098439    -0.73200
Al207      Al  0.37106075  0.37434057  0.84884003     1.90100
O208        O  0.41824009  0.38933408  0.80746199    -0.72300
O209        O  0.35421253  0.39047884  0.76050090    -0.72100
O210        O  0.39866501  0.35514954  0.76976039    -0.77800
O211        O  0.31918497  0.36974709  0.78114291    -0.76000
O212        O  0.36510188  0.36854530  0.81251415    -1.12100
O213        O  0.31449201  0.34953957  0.83128920    -0.71300
C214        C  0.31236778  0.36827084  0.84946420     0.99400
C215        C  0.42664381  0.37698174  0.82900817     0.95800
Al216      Al  0.38413305  0.38775471  0.78695654     1.55600
O217        O  0.36644614  0.33589084  0.85994563    -0.75900
C218        C  0.32858519  0.38502598  0.76211377     1.00000
C219        C  0.37365680  0.43079437  0.82574344     0.94900
O220        O  0.37695645  0.41390435  0.84561221    -0.81300
O221        O  0.14106367  0.33383102  0.61646142    -0.80700
C222        C  0.23688353  0.38467794  0.66356072     0.98600
O223        O  0.22842101  0.36020152  0.66740406    -0.69800
O224        O  0.17725430  0.35871346  0.68489622    -0.73400
Al225      Al  0.19599765  0.34065181  0.65558665     1.49000
C226        C  0.15193110  0.36518292  0.68557974     0.93900
O227        O  0.15181889  0.41056160  0.63272197    -0.79600
O228        O  0.19622965  0.37241541  0.57650201    -0.73200
Al229      Al  0.14871566  0.37187104  0.62495055     1.90100
O230        O  0.19028590  0.41874796  0.60955466    -0.72300
O231        O  0.23684487  0.35447897  0.60819912    -0.72100
O232        O  0.22814986  0.39902531  0.64347710    -0.77800
O233        O  0.21621977  0.31959568  0.62917598    -0.76000
O234        O  0.18505870  0.36569922  0.63049679    -1.12100
O235        O  0.16613419  0.31524318  0.64971680    -0.71300
C236        C  0.14779246  0.31320163  0.63114008     0.99400
C237        C  0.16888521  0.42731502  0.62205387     0.95800
Al238      Al  0.21059129  0.38452902  0.61105311     1.55600
O239        O  0.13785328  0.36741429  0.66346672    -0.75900
C240        C  0.23519877  0.32888721  0.61375691     1.00000
C241        C  0.17142212  0.37417208  0.56833204     0.94900
O242        O  0.15168475  0.37764808  0.58535018    -0.81300
O243        O  0.38153562  0.14220822  0.66449240    -0.80700
C244        C  0.33472079  0.23825526  0.61398419     0.98600
O245        O  0.33092794  0.22981308  0.63846856    -0.69800
O246        O  0.31321894  0.17874042  0.63970607    -0.73400
Al247      Al  0.34260813  0.19727032  0.65786262     1.49000
C248        C  0.31243529  0.15344960  0.63313094     0.93900
O249        O  0.36535719  0.15326400  0.58780250    -0.79600
O250        O  0.42172998  0.19733797  0.62609656    -0.73200
Al251      Al  0.37308109  0.15000739  0.62647653     1.90100
O252        O  0.38865276  0.19168074  0.57974382    -0.72300
O253        O  0.39016209  0.23799170  0.64422990    -0.72100
O254        O  0.35481996  0.22956328  0.59962075    -0.77800
O255        O  0.36911161  0.21725351  0.67900197    -0.76000
O256        O  0.36767042  0.18633766  0.63277497    -1.12100
O257        O  0.34832353  0.16729141  0.68314533    -0.71300
C258        C  0.36688308  0.14893103  0.68514681     0.99400
C259        C  0.37611393  0.17032777  0.57110714     0.95800
Al260      Al  0.38721285  0.21186898  0.61404860     1.55600
O261        O  0.33449944  0.13928843  0.63086910    -0.75900
C262        C  0.38462852  0.23620187  0.66982093     1.00000
C263        C  0.42979740  0.17250198  0.62426607     0.94900
O264        O  0.41269745  0.15284786  0.62072803    -0.81300
O265        O  0.35392298  0.83425767  0.88473336    -0.80700
C266        C  0.25844098  0.88485432  0.83684379     0.98600
O267        O  0.26685132  0.86031862  0.83320519    -0.69800
O268        O  0.31807818  0.85880178  0.81601717    -0.73400
Al269      Al  0.29922871  0.84084601  0.84527617     1.49000
C270        C  0.34336947  0.86537175  0.81542257     0.93900
O271        O  0.34314440  0.91090066  0.86821085    -0.79600
O272        O  0.29844002  0.87290687  0.92425663    -0.73200
Al273      Al  0.34626352  0.87224981  0.87607947     1.90100
O274        O  0.30454192  0.91913967  0.89115066    -0.72300
O275        O  0.25804064  0.85481111  0.89234233    -0.72100
O276        O  0.26697326  0.89926594  0.85698013    -0.77800
O277        O  0.27893559  0.81988737  0.87164408    -0.76000
O278        O  0.30997238  0.86601570  0.87034582    -1.12100
O279        O  0.32909358  0.81548753  0.85139694    -0.71300
C280        C  0.34727693  0.81353669  0.87013556     0.99400
C281        C  0.32602168  0.92767760  0.87878245     0.95800
Al282      Al  0.28428589  0.88489320  0.88957884     1.55600
O283        O  0.35735188  0.86769253  0.83759730    -0.75900
C284        C  0.25985072  0.82918503  0.88693744     1.00000
C285        C  0.32320166  0.87470124  0.93256471     0.94900
O286        O  0.34303366  0.87815015  0.91565383    -0.81300
O287        O  0.11316918  0.64220426  0.83623622    -0.80700
C288        C  0.16125952  0.73755344  0.88703821     0.98600
O289        O  0.16495245  0.72905966  0.86254381    -0.69800
O290        O  0.18197886  0.67775694  0.86101389    -0.73400
Al291      Al  0.15280463  0.69674264  0.84301870     1.49000
C292        C  0.18248554  0.65244807  0.86750639     0.93900
O293        O  0.12966552  0.65279607  0.91294200    -0.79600
O294        O  0.07375739  0.69776861  0.87499084    -0.73200
Al295      Al  0.12180943  0.64977637  0.87426896     1.90100
O296        O  0.10688718  0.69149777  0.92122416    -0.72300
O297        O  0.10582536  0.73807110  0.85695984    -0.72100
O298        O  0.14113425  0.72901358  0.90143688    -0.77800
O299        O  0.12652881  0.71718628  0.82203612    -0.76000
O300        O  0.12766556  0.68605849  0.86811660    -1.12100
O301        O  0.14662857  0.66692924  0.81760454    -0.71300
C302        C  0.12785624  0.64879695  0.81557430     0.99400
C303        C  0.11917225  0.66995040  0.92973812     0.95800
Al304      Al  0.10849772  0.71178744  0.88701015     1.55600
O305        O  0.16026206  0.63854598  0.86974651    -0.75900
C306        C  0.11132003  0.73633996  0.83135281     1.00000
C307        C  0.06537056  0.67303980  0.87675012     0.94900
O308        O  0.08223382  0.65314200  0.88012937    -0.81300
O309        O  0.16175002  0.88219996  0.64357932    -0.80700
C310        C  0.11177539  0.83521119  0.73983050     0.98600
O311        O  0.13618135  0.83136243  0.73115520    -0.69800
O312        O  0.13710260  0.81383135  0.67999132    -0.73400
Al313      Al  0.15539664  0.84312011  0.69853277     1.49000
C314        C  0.13035349  0.81313512  0.65474621     0.93900
O315        O  0.08509141  0.86609247  0.65500893    -0.79600
O316        O  0.12363172  0.92227178  0.69907537    -0.73200
Al317      Al  0.12376101  0.87377655  0.65156433     1.90100
O318        O  0.07725431  0.88922889  0.69358803    -0.72300
O319        O  0.14199907  0.89058511  0.73947869    -0.72100
O320        O  0.09735085  0.85531524  0.73125005    -0.77800
O321        O  0.17667256  0.86953087  0.71851588    -0.76000
O322        O  0.13025703  0.86824487  0.68783998    -1.12100
O323        O  0.18052390  0.84889508  0.66842694    -0.71300
C324        C  0.18243852  0.86750626  0.65012969     0.99400
C325        C  0.06849266  0.87677190  0.67223731     0.95800
Al326      Al  0.11167363  0.88772620  0.71355050     1.55600
O327        O  0.12805827  0.83523491  0.64067286    -0.75900
C328        C  0.16757780  0.88500928  0.73755985     1.00000
C329        C  0.12168498  0.93041753  0.67428596     0.94900
O330        O  0.11805342  0.91338510  0.65458401    -0.81300
O331        O  0.38201454  0.66251826  0.85682609    -0.80700
C332        C  0.33480691  0.61220535  0.76081545     0.98600
O333        O  0.33099821  0.63666371  0.76937368    -0.69800
O334        O  0.31354675  0.63785746  0.82052971    -0.73400
Al335      Al  0.34284087  0.65602667  0.80190236     1.49000
C336        C  0.31287105  0.63116351  0.84578156     0.93900
O337        O  0.36578163  0.58587488  0.84557311    -0.79600
O338        O  0.42197916  0.62423477  0.80139723    -0.73200
Al339      Al  0.37353192  0.62452755  0.84893535     1.90100
O340        O  0.38893764  0.57787112  0.80705525    -0.72300
O341        O  0.39022243  0.64242823  0.76093888    -0.72100
O342        O  0.35495379  0.59783198  0.76938525    -0.77800
O343        O  0.36923127  0.67719006  0.78181796    -0.76000
O344        O  0.36796285  0.63090923  0.81265010    -1.12100
O345        O  0.34872399  0.68126638  0.83191691    -0.71300
C346        C  0.36735600  0.68320683  0.85021290     0.99400
C347        C  0.37643599  0.56920388  0.82840082     0.95800
Al348      Al  0.38740453  0.61221805  0.78698450     1.55600
O349        O  0.33499331  0.62889633  0.85984908    -0.75900
C350        C  0.38466161  0.66801492  0.76278030     1.00000
C351        C  0.43015994  0.62234392  0.82618743     0.94900
O352        O  0.41314438  0.61876515  0.84590196    -0.81300
O353        O  0.33354388  0.85422098  0.61568244    -0.80700
C354        C  0.38427602  0.75878294  0.66347824     0.98600
O355        O  0.35974041  0.76718472  0.66713900    -0.69800
O356        O  0.35813271  0.81839832  0.68436558    -0.73400
Al357      Al  0.34020233  0.79951429  0.65507391     1.49000
C358        C  0.36471811  0.84368165  0.68498989     0.93900
O359        O  0.41023805  0.84350655  0.63223569    -0.79600
O360        O  0.37224679  0.79881741  0.57608053    -0.73200
Al361      Al  0.37156120  0.84659448  0.62434981     1.90100
O362        O  0.41848887  0.80493026  0.60923793    -0.72300
O363        O  0.35420031  0.75835418  0.60795532    -0.72100
O364        O  0.39865855  0.76732186  0.64334184    -0.77800
O365        O  0.31925600  0.77915607  0.62869711    -0.76000
O366        O  0.36535543  0.81029526  0.63002520    -1.12100
O367        O  0.31478757  0.82932679  0.64893964    -0.71300
C368        C  0.31281531  0.84751620  0.63022575     0.99400
C369        C  0.42702690  0.82640421  0.62164107     0.95800
Al370      Al  0.38425400  0.78464304  0.61075955     1.55600
O371        O  0.36701292  0.85766648  0.66283369    -0.75900
C372        C  0.32858124  0.76006470  0.61342112     1.00000
C373        C  0.37404653  0.82358882  0.56782532     0.94900
O374        O  0.37746244  0.84339800  0.58478471    -0.81300
O375        O  0.14145786  0.61371899  0.66460078    -0.80700
C376        C  0.23714552  0.66118324  0.61392418     0.98600
O377        O  0.22859084  0.66503659  0.63836755    -0.69800
O378        O  0.17734287  0.68228504  0.63972052    -0.73400
Al379      Al  0.19619101  0.65309765  0.65784969     1.49000
C380        C  0.15203394  0.68285274  0.63319186     0.93900
O381        O  0.15226740  0.62996409  0.58789752    -0.79600
O382        O  0.19682470  0.57390129  0.62608724    -0.73200
Al383      Al  0.14912261  0.62221232  0.62656910     1.90100
O384        O  0.19086949  0.60695856  0.57975720    -0.72300
O385        O  0.23727201  0.60579230  0.64416382    -0.72100
O386        O  0.22857438  0.64100892  0.59958544    -0.77800
O387        O  0.21650532  0.62682863  0.67896123    -0.76000
O388        O  0.18543099  0.62790720  0.63280203    -1.12100
O389        O  0.16630787  0.64713126  0.68321219    -0.71300
C390        C  0.14808816  0.62844461  0.68524389     0.99400
C391        C  0.16942645  0.61938197  0.57116425     0.95800
Al392      Al  0.21109078  0.60852721  0.61403216     1.55600
O393        O  0.13805598  0.66068093  0.63099974    -0.75900
C394        C  0.23556101  0.61144160  0.66973815     1.00000
C395        C  0.17204065  0.56566919  0.62429492     0.94900
O396        O  0.15226532  0.58263650  0.62078376    -0.81300
O397        O  0.88239729  0.83415801  0.64465076    -0.80700
C398        C  0.83416155  0.88485046  0.73992828     0.98600
O399        O  0.83056957  0.86031436  0.73149932    -0.69800
O400        O  0.81353064  0.85861667  0.68022140    -0.73400
Al401      Al  0.84279394  0.84077297  0.69922431     1.49000
C402        C  0.81299849  0.86518034  0.65493388     0.93900
O403        O  0.86564042  0.91078051  0.65525028    -0.79600
O404        O  0.92171233  0.87298854  0.70018119    -0.73200
Al405      Al  0.87362878  0.87214240  0.65223070     1.90100
O406        O  0.88847210  0.91915976  0.69389040    -0.72300
O407        O  0.88971076  0.85495375  0.74053950    -0.72100
O408        O  0.85426456  0.89929615  0.73140748    -0.77800
O409        O  0.86915361  0.81992139  0.71969653    -0.76000
O410        O  0.86782538  0.86596978  0.68851179    -1.12100
O411        O  0.84909399  0.81534257  0.66944552    -0.71300
C412        C  0.86784850  0.81341592  0.65128373     0.99400
C413        C  0.87611278  0.92762215  0.67236686     0.95800
Al414      Al  0.88694967  0.88495079  0.71421048     1.55600
O415        O  0.83520455  0.86750699  0.64102997    -0.75900
C416        C  0.88431359  0.82932335  0.73884441     1.00000
C417        C  0.93005644  0.87471151  0.67543449     0.94900
O418        O  0.91316945  0.87810823  0.65556524    -0.81300
O419        O  0.83362232  0.64189217  0.88478932    -0.80700
C420        C  0.88368527  0.73814794  0.83793260     0.98600
O421        O  0.85927629  0.72949827  0.83403130    -0.69800
O422        O  0.85829034  0.67834817  0.81646927    -0.73400
Al423      Al  0.83999801  0.69690091  0.84575940     1.49000
C424        C  0.86503799  0.65310166  0.81575965     0.93900
O425        O  0.91027197  0.65337866  0.86871575    -0.79600
O426        O  0.87162313  0.69734849  0.92494701    -0.73200
Al427      Al  0.87160784  0.64989928  0.87639113     1.90100
O428        O  0.91809645  0.69187858  0.89199099    -0.72300
O429        O  0.85334123  0.73783767  0.89326847    -0.72100
O430        O  0.89805076  0.72958246  0.85808387    -0.77800
O431        O  0.81870120  0.71690974  0.87213465    -0.76000
O432        O  0.86510424  0.68618260  0.87090166    -1.12100
O433        O  0.81485068  0.66680949  0.85152968    -0.71300
C434        C  0.81294023  0.64846618  0.87009791     0.99400
C435        C  0.92686900  0.67056927  0.87945884     0.95800
Al436      Al  0.88366290  0.71186850  0.89044644     1.55600
O437        O  0.86732371  0.63902170  0.83785174    -0.75900
C438        C  0.82777374  0.73596206  0.88761508     1.00000
C439        C  0.87360169  0.67254227  0.93304728     0.94900
O440        O  0.87730448  0.65287830  0.91598829    -0.81300
O441        O  0.64097446  0.88247124  0.83602512    -0.80700
C442        C  0.73657305  0.83502318  0.88687071     0.98600
O443        O  0.72814605  0.83123352  0.86236637    -0.69800
O444        O  0.67694441  0.81395707  0.86096817    -0.73400
Al445      Al  0.69573843  0.84314560  0.84284095     1.49000
C446        C  0.65166067  0.81335836  0.86756564     0.93900
O447        O  0.65177107  0.86638406  0.91276634    -0.79600
O448        O  0.69636496  0.92232532  0.87451192    -0.73200
Al449      Al  0.64864048  0.87404160  0.87407017     1.90100
O450        O  0.69035317  0.88940418  0.92088267    -0.72300
O451        O  0.73680875  0.89038895  0.85655974    -0.72100
O452        O  0.72799474  0.85521749  0.90117794    -0.77800
O453        O  0.71599129  0.86943923  0.82173817    -0.76000
O454        O  0.68494503  0.86833880  0.86787148    -1.12100
O455        O  0.66586033  0.84906726  0.81744725    -0.71300
C456        C  0.64765669  0.86777587  0.81538355     0.99400
C457        C  0.66890294  0.87703426  0.92948698     0.95800
Al458      Al  0.71059363  0.88771680  0.88665002     1.55600
O459        O  0.63762966  0.83551772  0.86973187    -0.75900
C460        C  0.73503141  0.88483347  0.83096850     1.00000
C461        C  0.67158869  0.93059748  0.87627434     0.94900
O462        O  0.65178802  0.91365805  0.87976276    -0.81300
O463        O  0.85477592  0.66244217  0.61615988    -0.80700
C464        C  0.75880583  0.61231332  0.66361603     0.98600
O465        O  0.76742384  0.63675092  0.66738593    -0.69800
O466        O  0.81864764  0.63795069  0.68471493    -0.73400
Al467      Al  0.79992912  0.65605883  0.65544054     1.49000
C468        C  0.84392159  0.63129584  0.68536199     0.93900
O469        O  0.84360161  0.58580997  0.63255750    -0.79600
O470        O  0.79923894  0.62407417  0.57638902    -0.73200
Al471      Al  0.84691799  0.62446387  0.62472734     1.90100
O472        O  0.80499545  0.57779748  0.60952492    -0.72300
O473        O  0.75883568  0.64237446  0.60818632    -0.72100
O474        O  0.76737365  0.59786324  0.64352266    -0.77800
O475        O  0.77974277  0.67718250  0.62906107    -0.76000
O476        O  0.81062916  0.63087767  0.63035718    -1.12100
O477        O  0.82992508  0.68125924  0.64945283    -0.71300
C478        C  0.84819265  0.68315610  0.63080561     0.99400
C479        C  0.82639283  0.56913086  0.62196977     0.95800
Al480      Al  0.78491255  0.61215590  0.61101553     1.55600
O481        O  0.85793473  0.62893630  0.66322543    -0.75900
C482        C  0.76064184  0.66796932  0.61372173     1.00000
C483        C  0.82401155  0.62215587  0.56815539     0.94900
O484        O  0.84378204  0.61860961  0.58513325    -0.81300
O485        O  0.66200122  0.61366469  0.85624544    -0.80700
C486        C  0.61120320  0.66183704  0.76099121     0.98600
O487        O  0.63568068  0.66558033  0.76952028    -0.69800
O488        O  0.63713091  0.68253477  0.82084118    -0.73400
Al489      Al  0.65520268  0.65341851  0.80182581     1.49000
C490        C  0.63063286  0.68299727  0.84614833     0.93900
O491        O  0.58531237  0.63021182  0.84571368    -0.79600
O492        O  0.62329076  0.57430772  0.80074284    -0.73200
Al493      Al  0.62397301  0.62233763  0.84873113     1.90100
O494        O  0.57702661  0.60746326  0.80698772    -0.72300
O495        O  0.64138766  0.60637535  0.76048334    -0.72100
O496        O  0.59684765  0.64165755  0.76946688    -0.77800
O497        O  0.67624417  0.62721361  0.78136070    -0.76000
O498        O  0.63013171  0.62822850  0.81246007    -1.12100
O499        O  0.68061834  0.64722060  0.83164303    -0.71300
C500        C  0.68266589  0.62835975  0.84967746     0.99400
C501        C  0.56851293  0.61975489  0.82853990     0.95800
Al502      Al  0.61127640  0.60904735  0.78671659     1.55600
O503        O  0.62849726  0.66075873  0.86002724    -0.75900
C504        C  0.66698638  0.61193496  0.76223710     1.00000
C505        C  0.62150806  0.56593086  0.82546764     0.94900
O506        O  0.61808859  0.58279286  0.84535079    -0.81300
O507        O  0.61339355  0.85451039  0.66421091    -0.80700
C508        C  0.66101380  0.75869714  0.61387791     0.98600
O509        O  0.66467493  0.76721778  0.63836593    -0.69800
O510        O  0.68201346  0.81840578  0.63964745    -0.73400
Al511      Al  0.65270919  0.79970793  0.65770500     1.49000
C512        C  0.68266339  0.84368121  0.63303469     0.93900
O513        O  0.62986087  0.84352240  0.58759156    -0.79600
O514        O  0.57367035  0.79908413  0.62559668    -0.73200
Al515      Al  0.62201075  0.84674253  0.62622665     1.90100
O516        O  0.60691512  0.80490847  0.57940634    -0.72300
O517        O  0.60545422  0.75866388  0.64389249    -0.72100
O518        O  0.64091142  0.76724770  0.59942707    -0.77800
O519        O  0.62628115  0.77956805  0.67874177    -0.76000
O520        O  0.62764858  0.81044822  0.63252580    -1.12100
O521        O  0.64672121  0.82967375  0.68297412    -0.71300
C522        C  0.62801970  0.84789608  0.68491884     0.99400
C523        C  0.61930974  0.82636166  0.57084303     0.95800
Al524      Al  0.60834493  0.78476546  0.61371225     1.55600
O525        O  0.66052300  0.85772070  0.63073572    -0.75900
C526        C  0.61091228  0.76051096  0.66950344     1.00000
C527        C  0.56543987  0.82386933  0.62379519     0.94900
O528        O  0.58242325  0.84363605  0.62034835    -0.81300
O529        O  0.83368455  0.35461411  0.11616005    -0.80700
C530        C  0.88381044  0.25839841  0.16315392     0.98600
O531        O  0.85942445  0.26711043  0.16707372    -0.69800
O532        O  0.85843256  0.31828330  0.18457787    -0.73400
Al533      Al  0.84012755  0.29969841  0.15530864     1.49000
C534        C  0.86513652  0.34353736  0.18525995     0.93900
O535        O  0.91031534  0.34321609  0.13235738    -0.79600
O536        O  0.87176149  0.29917435  0.07611293    -0.73200
Al537      Al  0.87166932  0.34666330  0.12462489     1.90100
O538        O  0.91820904  0.30468364  0.10914624    -0.72300
O539        O  0.85347659  0.25871990  0.10782272    -0.72100
O540        O  0.89818135  0.26696693  0.14302350    -0.77800
O541        O  0.81883757  0.27965263  0.12896086    -0.76000
O542        O  0.86521266  0.31038349  0.13015705    -1.12100
O543        O  0.81494555  0.32978968  0.14948543    -0.71300
C544        C  0.81300734  0.34806577  0.13084678     0.99400
C545        C  0.92693756  0.32601806  0.12166604     0.95800
Al546      Al  0.88379179  0.28468275  0.11064773     1.55600
O547        O  0.86735514  0.35759818  0.16315024    -0.75900
C548        C  0.82791516  0.26058337  0.11350307     1.00000
C549        C  0.87372591  0.32397082  0.06798577     0.94900
O550        O  0.87740211  0.34364905  0.08503360    -0.81300
O551        O  0.85448860  0.33410545  0.38473086    -0.80700
C552        C  0.75883020  0.38472913  0.33704203     0.98600
O553        O  0.76737378  0.36026376  0.33325668    -0.69800
O554        O  0.81864206  0.35893207  0.31610763    -0.73400
Al555      Al  0.79978747  0.34080989  0.34526247     1.49000
C556        C  0.84394476  0.36546874  0.31556968     0.93900
O557        O  0.84361037  0.41080786  0.36849555    -0.79600
O558        O  0.79893731  0.37259423  0.42440295    -0.73200
Al559      Al  0.84677658  0.37213140  0.37624069     1.90100
O560        O  0.80496167  0.41892514  0.39140164    -0.72300
O561        O  0.75858800  0.35453401  0.39238210    -0.72100
O562        O  0.76738956  0.39910430  0.35719510    -0.77800
O563        O  0.77946979  0.31969659  0.37151596    -0.76000
O564        O  0.81048792  0.36587949  0.37045394    -1.12100
O565        O  0.82969515  0.31548568  0.35127659    -0.71300
C566        C  0.84791347  0.31347070  0.36997358     0.99400
C567        C  0.82642231  0.42752979  0.37905013     0.95800
Al568      Al  0.78476953  0.38465582  0.38974081     1.55600
O569        O  0.85789939  0.36771433  0.33776600    -0.75900
C570        C  0.76034586  0.32894470  0.38680020     1.00000
C571        C  0.82368915  0.37439835  0.43274117     0.94900
O572        O  0.84352675  0.37789407  0.41584483    -0.81300
O573        O  0.88233473  0.16247607  0.35602544    -0.80700
C574        C  0.83387312  0.11130228  0.26109219     0.98600
O575        O  0.83029100  0.13587622  0.26941653    -0.69800
O576        O  0.81338219  0.13781160  0.32071686    -0.73400
Al577      Al  0.84257780  0.15556983  0.30157809     1.49000
C578        C  0.81291348  0.13143567  0.34605288     0.93900
O579        O  0.86559337  0.08582167  0.34587300    -0.79600
O580        O  0.92152367  0.12335382  0.30062881    -0.73200
Al581      Al  0.87356700  0.12446167  0.34867022     1.90100
O582        O  0.88831799  0.07724371  0.30722098    -0.72300
O583        O  0.88941678  0.14120140  0.26025104    -0.72100
O584        O  0.85400485  0.09689408  0.26964822    -0.77800
O585        O  0.86887321  0.17632042  0.28097421    -0.76000
O586        O  0.86765888  0.13043725  0.31236772    -1.12100
O587        O  0.84892128  0.18114477  0.33122673    -0.71300
C588        C  0.86772256  0.18316850  0.34934229     0.99400
C589        C  0.87603860  0.06890049  0.32882242     0.95800
Al590      Al  0.88672817  0.11133011  0.28672553     1.55600
O591        O  0.83515955  0.12917667  0.35992812    -0.75900
C592        C  0.88402983  0.16684285  0.26186747     1.00000
C593        C  0.92994379  0.12175014  0.32536345     0.94900
O594        O  0.91311298  0.11846518  0.34528736    -0.81300
O595        O  0.64068814  0.11425782  0.16462397    -0.80700
C596        C  0.73657725  0.16159432  0.11434135     0.98600
O597        O  0.72808936  0.16531979  0.13883131    -0.69800
O598        O  0.67691397  0.18274322  0.14009367    -0.73400
Al599      Al  0.69558375  0.15343009  0.15818658     1.49000
C600        C  0.65165959  0.18343713  0.13336997     0.93900
O601        O  0.65179714  0.13057242  0.08798619    -0.79600
O602        O  0.69613825  0.07439278  0.12624575    -0.73200
Al603      Al  0.64851686  0.12279463  0.12664319     1.90100
O604        O  0.69034999  0.10746452  0.07994650    -0.72300
O605        O  0.73659897  0.10612800  0.14445925    -0.72100
O606        O  0.72799404  0.14147846  0.09993006    -0.77800
O607        O  0.71570673  0.12699149  0.17927851    -0.76000
O608        O  0.68481414  0.12836693  0.13301628    -1.12100
O609        O  0.66560652  0.14750146  0.18343118    -0.71300
C610        C  0.64734086  0.12885173  0.18534779     0.99400
C611        C  0.66895113  0.11991837  0.07129603     0.95800
Al612      Al  0.71048195  0.10898320  0.11427354     1.55600
O613        O  0.63758590  0.16132902  0.13106227    -0.75900
C614        C  0.73474806  0.11158180  0.17006664     1.00000
C615        C  0.67135019  0.06619896  0.12437506     0.94900
O616        O  0.65159466  0.08319489  0.12083763    -0.81300
O617        O  0.66202765  0.38315455  0.14420882    -0.80700
C618        C  0.61131817  0.33521270  0.23954358     0.98600
O619        O  0.63582622  0.33147756  0.23110015    -0.69800
O620        O  0.63727993  0.31442363  0.17982997    -0.73400
Al621      Al  0.65534117  0.34357684  0.19877994     1.49000
C622        C  0.63069984  0.31390506  0.15454198     0.93900
O623        O  0.58532800  0.36673424  0.15494682    -0.79600
O624        O  0.62351328  0.42268717  0.19973725    -0.73200
Al625      Al  0.62400333  0.37455806  0.15183174     1.90100
O626        O  0.57717440  0.38967196  0.19357815    -0.72300
O627        O  0.64155909  0.39064744  0.24007194    -0.72100
O628        O  0.59698631  0.35542652  0.23107123    -0.77800
O629        O  0.67640312  0.36981622  0.21918537    -0.76000
O630        O  0.63025074  0.36875188  0.18810321    -1.12100
O631        O  0.68071203  0.34971307  0.16895044    -0.71300
C632        C  0.68271291  0.36848310  0.15082228     0.99400
C633        C  0.56858185  0.37729440  0.17210777     0.95800
Al634      Al  0.61144513  0.38800519  0.21382384     1.55600
O635        O  0.62847980  0.33611081  0.14062248    -0.75900
C636        C  0.66716039  0.38510590  0.23830348     1.00000
C637        C  0.62166425  0.43101297  0.17499613     0.94900
O638        O  0.61816079  0.41411954  0.15515113    -0.81300
O639        O  0.61330799  0.14217247  0.33645870    -0.80700
C640        C  0.66065754  0.23830564  0.38632639     0.98600
O641        O  0.66435228  0.22969827  0.36187168    -0.69800
O642        O  0.68183318  0.17855075  0.36076243    -0.73400
Al643      Al  0.65245240  0.19711689  0.34264397     1.49000
C644        C  0.68255886  0.15332947  0.36756934     0.93900
O645        O  0.62977875  0.15364990  0.41303125    -0.79600
O646        O  0.57343328  0.19771219  0.37465035    -0.73200
Al647      Al  0.62192748  0.15017887  0.37439773     1.90100
O648        O  0.60661448  0.19219428  0.42095754    -0.72300
O649        O  0.60511936  0.23814957  0.35625726    -0.72100
O650        O  0.64055411  0.22980273  0.40078389    -0.77800
O651        O  0.62597110  0.21713082  0.32150820    -0.76000
O652        O  0.62744068  0.18644632  0.36788091    -1.12100
O653        O  0.64648306  0.16703581  0.31750885    -0.71300
C654        C  0.62783153  0.14875980  0.31568333     0.99400
C655        C  0.61909990  0.17084101  0.42967167     0.95800
Al656      Al  0.60804533  0.21217353  0.38654132     1.55600
O657        O  0.66046067  0.13926306  0.36996781    -0.75900
C658        C  0.61059149  0.23622269  0.33066136     1.00000
C659        C  0.56529789  0.17291304  0.37662335     0.94900
O660        O  0.58234716  0.15322345  0.38024305    -0.81300
O661        O  0.83371479  0.88250567  0.35656115    -0.80700
C662        C  0.88402233  0.83586874  0.26032386     0.98600
O663        O  0.85954503  0.83204175  0.26880491    -0.69800
O664        O  0.85822407  0.81422621  0.31983657    -0.73400
Al665      Al  0.84014280  0.84369933  0.30136513     1.49000
C666        C  0.86485227  0.81338003  0.34510787     0.93900
O667        O  0.91030816  0.86614071  0.34530803    -0.79600
O668        O  0.87197878  0.92272229  0.30149161    -0.73200
Al669      Al  0.87167418  0.87397328  0.34866857     1.90100
O670        O  0.91835808  0.88963865  0.30702443    -0.72300
O671        O  0.85386610  0.89128541  0.26072951    -0.72100
O672        O  0.89841950  0.85592235  0.26906702    -0.77800
O673        O  0.81904123  0.87026758  0.28140890    -0.76000
O674        O  0.86529685  0.86867537  0.31233663    -1.12100
O675        O  0.81488603  0.84946379  0.33137158    -0.71300
C676        C  0.81299738  0.86795631  0.34981708     0.99400
C677        C  0.92700235  0.87695927  0.32828600     0.95800
Al678      Al  0.88403004  0.88826396  0.28685151     1.55600
O679        O  0.86719494  0.83540577  0.35930492    -0.75900
C680        C  0.82826750  0.88575715  0.26246260     1.00000
C681        C  0.87387717  0.93071546  0.32634365     0.94900
O682        O  0.87751564  0.91357165  0.34593071    -0.81300
O683        O  0.88217659  0.64260971  0.16484902    -0.80700
C684        C  0.83445877  0.73787057  0.11356258     0.98600
O685        O  0.83068955  0.72951620  0.13808441    -0.69800
O686        O  0.81349656  0.67826596  0.13980054    -0.73400
Al687      Al  0.84269992  0.69724908  0.15777099     1.49000
C688        C  0.81295633  0.65291103  0.13345360     0.93900
O689        O  0.86574202  0.65282156  0.08813237    -0.79600
O690        O  0.92179066  0.69775563  0.12591086    -0.73200
Al691      Al  0.87359072  0.64998719  0.12679585     1.90100
O692        O  0.88867405  0.69137026  0.07966870    -0.72300
O693        O  0.88986858  0.73827564  0.14369807    -0.72100
O694        O  0.85457518  0.72916251  0.09923485    -0.77800
O695        O  0.86901918  0.71770121  0.17869395    -0.76000
O696        O  0.86784195  0.68632575  0.13276668    -1.12100
O697        O  0.84874174  0.66753620  0.18332367    -0.71300
C698        C  0.86744071  0.64932315  0.18544417     0.99400
C699        C  0.87626701  0.66985090  0.07126196     0.95800
Al700      Al  0.88712358  0.71185940  0.11377684     1.55600
O701        O  0.83514403  0.63892811  0.13135414    -0.75900
C702        C  0.88434816  0.73670357  0.16930357     1.00000
C703        C  0.93008084  0.67297844  0.12430577     0.94900
O704        O  0.91315789  0.65314427  0.12094655    -0.81300
O705        O  0.64193089  0.83437189  0.11580622    -0.80700
C706        C  0.73748773  0.88537009  0.16313865     0.98600
O707        O  0.72916200  0.86083010  0.16686251    -0.69800
O708        O  0.67802832  0.85923699  0.18433767    -0.73400
Al709      Al  0.69678186  0.84124494  0.15500162     1.49000
C710        C  0.65269827  0.86566640  0.18504214     0.93900
O711        O  0.65244841  0.91104962  0.13231256    -0.79600
O712        O  0.69693768  0.87317743  0.07595127    -0.73200
Al713      Al  0.64944794  0.87239913  0.12442933     1.90100
O714        O  0.69088152  0.91942654  0.10914588    -0.72300
O715        O  0.73761326  0.85520667  0.10762263    -0.72100
O716        O  0.72879266  0.89970857  0.14303017    -0.77800
O717        O  0.71700594  0.82028321  0.12855652    -0.76000
O718        O  0.68579992  0.86631200  0.12995567    -1.12100
O719        O  0.66696650  0.81578047  0.14908269    -0.71300
C720        C  0.64870855  0.81371834  0.13042403     0.99400
C721        C  0.66944362  0.92788505  0.12166836     0.95800
Al722      Al  0.71128839  0.88523778  0.11055084     1.55600
O723        O  0.63858882  0.86782033  0.16294031    -0.75900
C724        C  0.73596004  0.82959488  0.11312674     1.00000
C725        C  0.67211307  0.87490459  0.06781174     0.94900
O726        O  0.65239280  0.87830805  0.08485950    -0.81300
O727        O  0.66210045  0.85451681  0.38468643    -0.80700
C728        C  0.61108145  0.75920876  0.33691584     0.98600
O729        O  0.63565606  0.76748793  0.33327251    -0.69800
O730        O  0.63741408  0.81868170  0.31601010    -0.73400
Al731      Al  0.65528669  0.79978033  0.34531048     1.49000
C732        C  0.63095858  0.84400441  0.31538983     0.93900
O733        O  0.58543381  0.84410565  0.36807544    -0.79600
O734        O  0.62322653  0.79931129  0.42424053    -0.73200
Al735      Al  0.62408918  0.84703526  0.37600607     1.90100
O736        O  0.57700230  0.80561082  0.39108789    -0.72300
O737        O  0.64110725  0.75875275  0.39240995    -0.72100
O738        O  0.59670079  0.76787829  0.35700782    -0.77800
O739        O  0.67615425  0.77940345  0.37172973    -0.76000
O740        O  0.63016342  0.81070510  0.37033501    -1.12100
O741        O  0.68077704  0.82952600  0.35141607    -0.71300
C742        C  0.68278544  0.84776477  0.37009881     0.99400
C743        C  0.56856916  0.82709019  0.37863697     0.95800
Al744      Al  0.61115771  0.78516440  0.38958513     1.55600
O745        O  0.62871364  0.85802859  0.33754009    -0.75900
C746        C  0.66674471  0.76038258  0.38701660     1.00000
C747        C  0.62155687  0.82409366  0.43250605     0.94900
O748        O  0.61816549  0.84390947  0.41556913    -0.81300
O749        O  0.85348328  0.61383577  0.33626401    -0.80700
C750        C  0.75786228  0.66127604  0.38714569     0.98600
O751        O  0.76627756  0.66501050  0.36264079    -0.69800
O752        O  0.81745939  0.68241040  0.36103527    -0.73400
Al753      Al  0.79864284  0.65308503  0.34308112     1.49000
C754        C  0.84280208  0.68307190  0.36742550     0.93900
O755        O  0.84291408  0.63032466  0.41295449    -0.79600
O756        O  0.79834030  0.57405223  0.37504681    -0.73200
Al757      Al  0.84592011  0.62245117  0.37428756     1.90100
O758        O  0.80442339  0.60724441  0.42129678    -0.72300
O759        O  0.75770918  0.60580080  0.35706475    -0.72100
O760        O  0.76655601  0.64119671  0.40153159    -0.77800
O761        O  0.77835287  0.62666476  0.32212691    -0.76000
O762        O  0.80957456  0.62803770  0.36817195    -1.12100
O763        O  0.82845295  0.64710231  0.31764422    -0.71300
C764        C  0.84675650  0.62848625  0.31561598     0.99400
C765        C  0.82589268  0.61969900  0.42978029     0.95800
Al766      Al  0.78403860  0.60868250  0.38709249     1.55600
O767        O  0.85684456  0.66093848  0.36969538    -0.75900
C768        C  0.75933000  0.61132779  0.33145918     1.00000
C769        C  0.82315276  0.56587246  0.37676151     0.94900
O770        O  0.84290173  0.58288463  0.38017738    -0.81300
O771        O  0.61367911  0.66276248  0.14392223    -0.80700
C772        C  0.66042037  0.61220662  0.24002207     0.98600
O773        O  0.66432744  0.63664919  0.23149847    -0.69800
O774        O  0.68196665  0.63780106  0.18039613    -0.73400
Al775      Al  0.65266303  0.65606294  0.19894551     1.49000
C776        C  0.68269933  0.63119986  0.15511351     0.93900
O777        O  0.62972908  0.58605917  0.15500371    -0.79600
O778        O  0.57344097  0.62449632  0.19905511    -0.73200
Al779      Al  0.62206201  0.62473720  0.15172270     1.90100
O780        O  0.60643802  0.57806656  0.19343524    -0.72300
O781        O  0.60506355  0.64258061  0.23967053    -0.72100
O782        O  0.64028847  0.59789058  0.23132178    -0.77800
O783        O  0.62624663  0.67728988  0.21895249    -0.76000
O784        O  0.62751777  0.63104187  0.18804640    -1.12100
O785        O  0.64697368  0.68135041  0.16895156    -0.71300
C786        C  0.62839366  0.68338410  0.15061243     0.99400
C787        C  0.61898775  0.56939667  0.17210601     0.95800
Al788      Al  0.60793801  0.61238015  0.21359086     1.55600
O789        O  0.66062311  0.62904326  0.14096436    -0.75900
C790        C  0.61069336  0.66815049  0.23789079     1.00000
C791        C  0.56535891  0.62266130  0.17422687     0.94900
O792        O  0.58244446  0.61905991  0.15457744    -0.81300
O793        O  0.14158808  0.38289306  0.33659317    -0.80700
C794        C  0.23714540  0.33502869  0.38721443     0.98600
O795        O  0.22866592  0.33134717  0.36271071    -0.69800
O796        O  0.17741374  0.31415296  0.36109845    -0.73400
Al797      Al  0.19631179  0.34343542  0.34320639     1.49000
C798        C  0.15210054  0.31356934  0.36759278     0.93900
O799        O  0.15228980  0.36625289  0.41319700    -0.79600
O800        O  0.19701083  0.42238859  0.37537206    -0.73200
Al801      Al  0.14921915  0.37419766  0.37457305     1.90100
O802        O  0.19087239  0.38918777  0.42155287    -0.72300
O803        O  0.23746260  0.39052152  0.35728856    -0.72100
O804        O  0.22854466  0.35511174  0.40166211    -0.77800
O805        O  0.21667644  0.36981691  0.32230355    -0.76000
O806        O  0.18552845  0.36847939  0.36838325    -1.12100
O807        O  0.16647236  0.34959315  0.31781833    -0.71300
C808        C  0.14822435  0.36827537  0.31588324     0.99400
C809        C  0.16938494  0.37678124  0.43002612     0.95800
Al810      Al  0.21117967  0.38770317  0.38732474     1.55600
O811        O  0.13813460  0.33574766  0.36992765    -0.75900
C812        C  0.23576406  0.38507575  0.33166621     1.00000
C813        C  0.17224344  0.43068038  0.37713288     0.94900
O814        O  0.15241844  0.41375877  0.38054639    -0.81300
O815        O  0.38195468  0.33443244  0.14447791    -0.80700
C816        C  0.33493108  0.38477500  0.24056511     0.98600
O817        O  0.33111301  0.36033056  0.23198219    -0.69800
O818        O  0.31355615  0.35925029  0.18084544    -0.73400
Al819      Al  0.34286656  0.34100191  0.19940728     1.49000
C820        C  0.31283716  0.36593642  0.15559162     0.93900
O821        O  0.36582278  0.41110861  0.15569051    -0.79600
O822        O  0.42205033  0.37274528  0.19984777    -0.73200
Al823      Al  0.37351198  0.37244374  0.15235497     1.90100
O824        O  0.38896519  0.41910513  0.19423573    -0.72300
O825        O  0.39034835  0.35449876  0.24031572    -0.72100
O826        O  0.35504972  0.39915123  0.23196520    -0.77800
O827        O  0.36928758  0.31978944  0.21941574    -0.76000
O828        O  0.36799215  0.36608753  0.18864638    -1.12100
O829        O  0.34863829  0.31576344  0.16936054    -0.71300
C830        C  0.36726987  0.31377319  0.15108172     0.99400
C831        C  0.37651629  0.42777246  0.17284526     0.95800
Al832      Al  0.38747821  0.38475292  0.21430307     1.55600
O833        O  0.33493601  0.36813896  0.14148881    -0.75900
C834        C  0.38477163  0.32891771  0.23843793     1.00000
C835        C  0.43019085  0.37461838  0.17504734     0.94900
O836        O  0.41313437  0.37815309  0.15534662    -0.81300
O837        O  0.33349353  0.14207895  0.38477216    -0.80700
C838        C  0.38431582  0.23750158  0.33712139     0.98600
O839        O  0.35978731  0.22911135  0.33339629    -0.69800
O840        O  0.35824956  0.17789232  0.31615151    -0.73400
Al841      Al  0.34024006  0.19676499  0.34538925     1.49000
C842        C  0.36481843  0.15259937  0.31554841     0.93900
O843        O  0.41019692  0.15270397  0.36838653    -0.79600
O844        O  0.37215365  0.19744058  0.42444074    -0.73200
Al845      Al  0.37152039  0.14965756  0.37619442     1.90100
O846        O  0.41843477  0.19127830  0.39138976    -0.72300
O847        O  0.35417117  0.23788500  0.39254657    -0.72100
O848        O  0.39867929  0.22890540  0.35725847    -0.77800
O849        O  0.31924845  0.21710189  0.37173737    -0.76000
O850        O  0.36534350  0.18596012  0.37049684    -1.12100
O851        O  0.31481399  0.16694536  0.35142885    -0.71300
C852        C  0.31280066  0.14877086  0.37015389     0.99400
C853        C  0.42697445  0.16980629  0.37898586     0.95800
Al854      Al  0.38421998  0.21159184  0.38979949     1.55600
O855        O  0.36703159  0.13859880  0.33770478    -0.75900
C856        C  0.32855493  0.23615622  0.38707155     1.00000
C857        C  0.37390985  0.17267469  0.43271529     0.94900
O858        O  0.37735590  0.15284994  0.41577926    -0.81300
O859        O  0.16168715  0.11407482  0.35699768    -0.80700
C860        C  0.11174303  0.16113431  0.26075200     0.98600
O861        O  0.13617715  0.16491107  0.26938733    -0.69800
O862        O  0.13720129  0.18246417  0.32051516    -0.73400
Al863      Al  0.15541142  0.15311049  0.30198605     1.49000
C864        C  0.13042312  0.18320740  0.34574377     0.93900
O865        O  0.08504573  0.13033870  0.34545476    -0.79600
O866        O  0.12356955  0.07401269  0.30148211    -0.73200
Al867      Al  0.12370937  0.12257348  0.34895626     1.90100
O868        O  0.07720024  0.10711459  0.30693123    -0.72300
O869        O  0.14192836  0.10569154  0.26101499    -0.72100
O870        O  0.09731394  0.14102719  0.26929100    -0.77800
O871        O  0.17663669  0.12666056  0.28199221    -0.76000
O872        O  0.13023257  0.12805000  0.31268308    -1.12100
O873        O  0.18053934  0.14726342  0.33208050    -0.71300
C874        C  0.18241333  0.12868149  0.35041155     0.99400
C875        C  0.06843913  0.11963294  0.32824488     0.95800
Al876      Al  0.11162270  0.10858153  0.28697506     1.55600
O877        O  0.12805642  0.16112362  0.35982757    -0.75900
C878        C  0.16751149  0.11125666  0.26290309     1.00000
C879        C  0.12158163  0.06590073  0.32628408     0.94900
O880        O  0.11794599  0.08297025  0.34595618    -0.81300
O881        O  0.35398437  0.16273602  0.11600447    -0.80700
C882        C  0.25843314  0.11204875  0.16361283     0.98600
O883        O  0.26689497  0.13654117  0.16737288    -0.69800
O884        O  0.31813443  0.13785674  0.18460173    -0.73400
Al885      Al  0.29930775  0.15599439  0.15541822     1.49000
C886        C  0.34343526  0.13129885  0.18517396     0.93900
O887        O  0.34320778  0.08601290  0.13225297    -0.79600
O888        O  0.29856524  0.12420075  0.07626938    -0.73200
Al889      Al  0.34633884  0.12469608  0.12451561     1.90100
O890        O  0.30457423  0.07788262  0.10929806    -0.72300
O891        O  0.25818033  0.14230783  0.10817820    -0.72100
O892        O  0.26696034  0.09771035  0.14342369    -0.77800
O893        O  0.27905010  0.17710109  0.12912469    -0.76000
O894        O  0.31004364  0.13092846  0.13024024    -1.12100
O895        O  0.32919752  0.18133914  0.14945846    -0.71300
C896        C  0.34735424  0.18338671  0.13071881     0.99400
C897        C  0.32604471  0.06928506  0.12166647     0.95800
Al898      Al  0.28435731  0.11215628  0.11090372     1.55600
O899        O  0.35742243  0.12911575  0.16300233    -0.75900
C900        C  0.26000013  0.16790244  0.11372191     1.00000
C901        C  0.32333530  0.12240206  0.06800114     0.94900
O902        O  0.34314429  0.11891504  0.08493870    -0.81300
O903        O  0.11313412  0.35471228  0.16497156    -0.80700
C904        C  0.16138439  0.25950468  0.11409342     0.98600
O905        O  0.16511495  0.26796716  0.13859893    -0.69800
O906        O  0.18201218  0.31929333  0.14027737    -0.73400
Al907      Al  0.15288415  0.30021128  0.15820864     1.49000
C908        C  0.18245761  0.34460646  0.13380336     0.93900
O909        O  0.12964746  0.34411221  0.08827668    -0.79600
O910        O  0.07382814  0.29910199  0.12633093    -0.73200
Al911      Al  0.12178152  0.34714951  0.12695219     1.90100
O912        O  0.10681255  0.30544990  0.08003292    -0.72300
O913        O  0.10599210  0.25881195  0.14422379    -0.72100
O914        O  0.14118839  0.26799691  0.09974557    -0.77800
O915        O  0.12668558  0.27966712  0.17916675    -0.76000
O916        O  0.12770738  0.31087739  0.13311773    -1.12100
O917        O  0.14659555  0.32997232  0.18365272    -0.71300
C918        C  0.12780691  0.34810509  0.18565256     0.99400
C919        C  0.11912199  0.32696045  0.07149390     0.95800
Al920      Al  0.10855220  0.28514041  0.11422794     1.55600
O921        O  0.16019810  0.35845461  0.13151040    -0.75900
C922        C  0.11149568  0.26051636  0.16982850     1.00000
C923        C  0.06539741  0.32381700  0.12452973     0.94900
O924        O  0.08221392  0.34372666  0.12107377    -0.81300
O925        O  0.38182609  0.85491227  0.33605178    -0.80700
C926        C  0.33526932  0.75878725  0.38660267     0.98600
O927        O  0.33132204  0.76731414  0.36216937    -0.69800
O928        O  0.31362482  0.81840716  0.36116036    -0.73400
Al929      Al  0.34289521  0.79989985  0.34279661     1.49000
C930        C  0.31288212  0.84368257  0.36780014     0.93900
O931        O  0.36600102  0.84377206  0.41279899    -0.79600
O932        O  0.42220799  0.79974200  0.37424322    -0.73200
Al933      Al  0.37355110  0.84708652  0.37410172     1.90100
O934        O  0.38929417  0.80530271  0.42071959    -0.72300
O935        O  0.39057610  0.75916697  0.35611700    -0.72100
O936        O  0.35543768  0.76745151  0.40088948    -0.77800
O937        O  0.36927717  0.77994219  0.32148758    -0.76000
O938        O  0.36810349  0.81076839  0.36777834    -1.12100
O939        O  0.34846501  0.82993088  0.31753467    -0.71300
C940        C  0.36706186  0.84823333  0.31545332     0.99400
C941        C  0.37676239  0.82663435  0.42943195     0.95800
Al942      Al  0.38774317  0.78519571  0.38637543     1.55600
O943        O  0.33495310  0.85784371  0.36990038    -0.75900
C944        C  0.38488915  0.76100168  0.33055912     1.00000
C945        C  0.43028080  0.82456870  0.37608099     0.94900
O946        O  0.41319087  0.84422456  0.37969213    -0.81300
O947        O  0.11334281  0.83401558  0.35661719    -0.80700
C948        C  0.16104649  0.88516929  0.26135262     0.98600
O949        O  0.16489782  0.86067882  0.26977903    -0.69800
O950        O  0.18202970  0.85903339  0.32105043    -0.73400
Al951      Al  0.15287805  0.84101382  0.30203799     1.49000
C952        C  0.18254603  0.86540714  0.34639500     0.93900
O953        O  0.12966953  0.91076472  0.34625288    -0.79600
O954        O  0.07371795  0.87274107  0.30135238    -0.73200
Al955      Al  0.12188437  0.87207389  0.34917917     1.90100
O956        O  0.10670915  0.91907294  0.30766862    -0.72300
O957        O  0.10568478  0.85489730  0.26090197    -0.72100
O958        O  0.14086171  0.89945926  0.26996734    -0.77800
O959        O  0.12664688  0.82000238  0.28156023    -0.76000
O960        O  0.12767145  0.86601154  0.31286483    -1.12100
O961        O  0.14681557  0.81550518  0.33176772    -0.71300
C962        C  0.12807622  0.81339989  0.34992443     0.99400
C963        C  0.11908695  0.92757354  0.32917498     0.95800
Al964      Al  0.10835270  0.88490018  0.28726175     1.55600
O965        O  0.16033727  0.86755573  0.36032600    -0.75900
C966        C  0.11129088  0.82930516  0.26252572     1.00000
C967        C  0.06540075  0.87446032  0.32610307     0.94900
O968        O  0.08230374  0.87789840  0.34595095    -0.81300
O969        O  0.35337994  0.88281096  0.16436754    -0.80700
C970        C  0.25754266  0.83567645  0.11374284     0.98600
O971        O  0.26592908  0.83197572  0.13827009    -0.69800
O972        O  0.31704063  0.81439028  0.13962592    -0.73400
Al973      Al  0.29842673  0.84376520  0.15770866     1.49000
C974        C  0.34231736  0.81363250  0.13300953     0.93900
O975        O  0.34242245  0.86648515  0.08768800    -0.79600
O976        O  0.29813004  0.92282023  0.12581848    -0.73200
Al977      Al  0.34562735  0.87427540  0.12635051     1.90100
O978        O  0.30395156  0.88968997  0.07952220    -0.72300
O979        O  0.25754092  0.89115421  0.14391840    -0.72100
O980        O  0.26618887  0.85576981  0.09936841    -0.77800
O981        O  0.27835776  0.87026235  0.17876211    -0.76000
O982        O  0.30930751  0.86879999  0.13259781    -1.12100
O983        O  0.32837320  0.84959387  0.18304316    -0.71300
C984        C  0.34666919  0.86820759  0.18504613     0.99400
C985        C  0.32534465  0.87717351  0.07094422     0.95800
Al986      Al  0.28372829  0.88823995  0.11378996     1.55600
O987        O  0.35644871  0.83571010  0.13078030    -0.75900
C988        C  0.25934185  0.88568245  0.16952482     1.00000
C989        C  0.32295026  0.93093956  0.12402491     0.94900
O990        O  0.34266170  0.91387755  0.12055375    -0.81300
O991        O  0.16182918  0.64202459  0.11603356    -0.80700
C992        C  0.11147314  0.73795275  0.16346717     0.98600
O993        O  0.13595150  0.72941133  0.16719147    -0.69800
O994        O  0.13739416  0.67823473  0.18459856    -0.73400
Al995      Al  0.15536096  0.69694893  0.15524041     1.49000
C996        C  0.13081996  0.65294695  0.18528052     0.93900
O997        O  0.08521108  0.65306110  0.13258035    -0.79600
O998        O  0.12322275  0.69736597  0.07625611    -0.73200
Al999      Al  0.12385091  0.64981870  0.12467010     1.90100
O1000       O  0.07702045  0.69157434  0.10949023    -0.72300
O1001       O  0.14142791  0.73788905  0.10794453    -0.72100
O1002       O  0.09701851  0.72933103  0.14339635    -0.77800
O1003       O  0.17634689  0.71712816  0.12878153    -0.76000
O1004       O  0.13015902  0.68613025  0.13023101    -1.12100
O1005       O  0.18066107  0.66701654  0.14922031    -0.71300
C1006       C  0.18255579  0.64867803  0.13062488     0.99400
C1007       C  0.06845434  0.67018738  0.12198824     0.95800
Al1008     Al  0.11131078  0.71174891  0.11088356     1.55600
O1009       O  0.12843685  0.63890106  0.16316041    -0.75900
C1010       C  0.16704193  0.73614515  0.11340993     1.00000
C1011       C  0.12139159  0.67256520  0.06807862     0.94900
O1012       O  0.11791542  0.65284020  0.08509581    -0.81300
O1013       O  0.33349838  0.61378731  0.14432044    -0.80700
C1014       C  0.38462294  0.66207928  0.23935510     0.98600
O1015       O  0.36001668  0.66563233  0.23110053    -0.69800
O1016       O  0.35794705  0.68267079  0.17984804    -0.73400
Al1017     Al  0.34030178  0.65337219  0.19893217     1.49000
C1018       C  0.36433668  0.68322342  0.15451520     0.93900
O1019       O  0.41015080  0.63065667  0.15457308    -0.79600
O1020       O  0.37265801  0.57454627  0.19965248    -0.73200
Al1021     Al  0.37150649  0.62260182  0.15173209     1.90100
O1022       O  0.41874247  0.60778334  0.19311999    -0.72300
O1023       O  0.35481120  0.60649498  0.24013967    -0.72100
O1024       O  0.39904712  0.64198473  0.23074414    -0.77800
O1025       O  0.31962489  0.62697356  0.21948879    -0.76000
O1026       O  0.36549807  0.62839096  0.18805063    -1.12100
O1027       O  0.31473113  0.64702352  0.16929567    -0.71300
C1028       C  0.31276481  0.62832075  0.15107245     0.99400
C1029       C  0.42708887  0.62018109  0.17158989     0.95800
Al1030     Al  0.38465103  0.60929361  0.21363010     1.55600
O1031       O  0.36670641  0.66102109  0.14058883    -0.75900
C1032       C  0.32915139  0.61180671  0.23855525     1.00000
C1033       C  0.37430320  0.56618634  0.17490250     0.94900
O1034       O  0.37758164  0.58305667  0.15501317    -0.81300
O1035       O  0.14204848  0.66245018  0.38474032    -0.80700
C1036       C  0.23794212  0.61186738  0.33753783     0.98600
O1037       O  0.22940660  0.63632959  0.33372293    -0.69800
O1038       O  0.17822631  0.63769759  0.31626714    -0.73400
Al1039     Al  0.19694369  0.65579763  0.34557297     1.49000
C1040       C  0.15293358  0.63113132  0.31558653     0.93900
O1041       O  0.15302046  0.58578186  0.36843933    -0.79600
O1042       O  0.19737227  0.62401715  0.42467244    -0.73200
Al1043     Al  0.14980844  0.62444466  0.37621763     1.90100
O1044       O  0.19152629  0.57766775  0.39160756    -0.72300
O1045       O  0.23791973  0.64206689  0.39291787    -0.72100
O1046       O  0.22929874  0.59749470  0.35763684    -0.77800
O1047       O  0.21713751  0.67689535  0.37196786    -0.76000
O1048       O  0.18612333  0.63071233  0.37066168    -1.12100
O1049       O  0.16700667  0.68113447  0.35148412    -0.71300
C1050       C  0.14870081  0.68311542  0.37009248     0.99400
C1051       C  0.17011022  0.56906395  0.37914771     0.95800
Al1052     Al  0.21174056  0.61194353  0.39009052     1.55600
O1053       O  0.13888059  0.62887757  0.33770269    -0.75900
C1054       C  0.23619245  0.66765465  0.38734334     1.00000
C1055       C  0.17256969  0.62216958  0.43283384     0.94900
O1056       O  0.15284256  0.61865126  0.41580355    -0.81300
C1057       C  0.31067385  0.60202079  0.25984478    -0.17400
C1058       C  0.29461768  0.59745850  0.27854863     0.06600
C1059       C  0.27520471  0.59688326  0.30056564     0.08500
C1060       C  0.25819986  0.60101978  0.31851417    -0.18300
C1061       C  0.28607664  0.62402595  0.13827609    -0.17400
C1062       C  0.26200962  0.62412979  0.13108224     0.06600
C1063       C  0.23321966  0.62842656  0.12672518     0.08500
C1064       C  0.20916954  0.63567350  0.12650274    -0.18300
C1065       C  0.14001395  0.62771517  0.28881832    -0.17400
C1066       C  0.13270123  0.62821471  0.26479325     0.06600
C1067       C  0.12812779  0.63272688  0.23606941     0.08500
C1068       C  0.12753681  0.64002460  0.21204835    -0.18300
C1069       C  0.18568550  0.75726845  0.10359938    -0.17400
C1070       C  0.20166152  0.77603883  0.09904945     0.06600
C1071       C  0.22080049  0.79828879  0.09854976     0.08500
C1072       C  0.23752851  0.81646736  0.10278809    -0.18300
C1073       C  0.36746474  0.70994435  0.14144521    -0.17400
C1074       C  0.36683160  0.73398202  0.13418531     0.06600
C1075       C  0.36231711  0.76274629  0.12982552     0.08500
C1076       C  0.35511411  0.78681365  0.12947109    -0.18300
C1077       C  0.10161494  0.81066337  0.24130319    -0.17400
C1078       C  0.09711921  0.79455224  0.22261307     0.06600
C1079       C  0.09657488  0.77514806  0.20056885     0.08500
C1080       C  0.10069298  0.75817930  0.18257172    -0.18300
C1081       C  0.12394812  0.78668012  0.36267705    -0.17400
C1082       C  0.12414660  0.76259721  0.36978250     0.06600
C1083       C  0.12849539  0.73380356  0.37402457     0.08500
C1084       C  0.13574059  0.70975561  0.37418784    -0.18300
C1085       C  0.23831880  0.89553982  0.18827968    -0.17400
C1086       C  0.21979872  0.90004838  0.20456521     0.06600
C1087       C  0.19794681  0.90045428  0.22416355     0.08500
C1088       C  0.18008471  0.89614923  0.24120416    -0.18300
C1089       C  0.37104351  0.86109750  0.28875962    -0.17400
C1090       C  0.37084243  0.86816950  0.26466305     0.06600
C1091       C  0.36661248  0.87230789  0.23583177     0.08500
C1092       C  0.35951072  0.87238198  0.21173689    -0.18300
C1093       C  0.39474990  0.74008158  0.31169656    -0.17400
C1094       C  0.39933350  0.72151290  0.29548183     0.06600
C1095       C  0.39984309  0.69947248  0.27609468     0.08500
C1096       C  0.39559153  0.68138173  0.25926993    -0.18300
C1097       C  0.20923773  0.86872747  0.35948982    -0.17400
C1098       C  0.23326564  0.86818491  0.36679755     0.06600
C1099       C  0.26202660  0.86368807  0.37117465     0.08500
C1100       C  0.28608421  0.85646363  0.37147756    -0.18300
C1101       C  0.25736905  0.68633991  0.39701678    -0.17400
C1102       C  0.27611219  0.70240342  0.40143390     0.06600
C1103       C  0.29824267  0.72169484  0.40182073     0.08500
C1104       C  0.31626593  0.73858135  0.39754602    -0.18300
C1105       C  0.32860757  0.96030617  0.12518306    -0.17400
C1106       C  0.33126794  0.98528819  0.12535592     0.06600
C1107       C  0.33203689  0.01472027  0.12476625     0.08500
C1108       C  0.33059842  0.03977788  0.12366999    -0.18300
C1109       C  0.23897937  0.18668616  0.10392615    -0.17400
C1110       C  0.22044187  0.20295036  0.09939312     0.06600
C1111       C  0.19852757  0.22248301  0.09891838     0.08500
C1112       C  0.18056873  0.23945046  0.10316662    -0.18300
C1113       C  0.12270266  0.03653495  0.33196232    -0.17400
C1114       C  0.12284881  0.01155237  0.33463159     0.06600
C1115       C  0.12223090  0.98211757  0.33537138     0.08500
C1116       C  0.12111159  0.95706270  0.33386193    -0.18300
C1117       C  0.23844111  0.10109804  0.18284171    -0.17400
C1118       C  0.22168013  0.09679969  0.20097397     0.06600
C1119       C  0.20243290  0.09715512  0.22314457     0.08500
C1120       C  0.18632490  0.10156260  0.24184860    -0.18300
C1121       C  0.10189989  0.23925367  0.18843177    -0.17400
C1122       C  0.09742802  0.22048986  0.20443839     0.06600
C1123       C  0.09687575  0.19833466  0.22368702     0.08500
C1124       C  0.10097694  0.18025557  0.24055377    -0.18300
C1125       C  0.20903492  0.12454155  0.36340383    -0.17400
C1126       C  0.23313989  0.12470464  0.37048003     0.06600
C1127       C  0.26198937  0.12894551  0.37450840     0.08500
C1128       C  0.28608790  0.13603293  0.37444965    -0.18300
C1129       C  0.36833931  0.13965201  0.28880748    -0.17400
C1130       C  0.36798448  0.13246249  0.26474126     0.06600
C1131       C  0.36363870  0.12813539  0.23594946     0.08500
C1132       C  0.35641487  0.12777671  0.21189512    -0.18300
C1133       C  0.37457369  0.45727972  0.16832249    -0.17400
C1134       C  0.37352412  0.48232531  0.16672173     0.06600
C1135       C  0.37298074  0.51175870  0.16717324     0.08500
C1136       C  0.37317302  0.53676797  0.16953977    -0.18300
C1137       C  0.36012845  0.21009885  0.12654301    -0.17400
C1138       C  0.36715730  0.23421164  0.12668851     0.06600
C1139       C  0.37128227  0.26304391  0.13095711     0.08500
C1140       C  0.37137867  0.28711784  0.13813828    -0.18300
C1141       C  0.20913517  0.35774446  0.13051550    -0.17400
C1142       C  0.23317954  0.36500381  0.13107789     0.06600
C1143       C  0.26196421  0.36930625  0.13557059     0.08500
C1144       C  0.28603315  0.36958331  0.14278217    -0.18300
C1145       C  0.39458857  0.31008675  0.25939934    -0.17400
C1146       C  0.39910504  0.29386322  0.27796492     0.06600
C1147       C  0.39954367  0.27443126  0.29995317     0.08500
C1148       C  0.39526705  0.25754049  0.31795882    -0.18300
C1149       C  0.16678678  0.46008202  0.37597040    -0.17400
C1150       C  0.16435181  0.48508400  0.37573406     0.06600
C1151       C  0.16386296  0.51452064  0.37621604     0.08500
C1152       C  0.16548734  0.53956715  0.37722141    -0.18300
C1153       C  0.13529090  0.37246879  0.28925113    -0.17400
C1154       C  0.12804407  0.37233232  0.26520475     0.06600
C1155       C  0.12370549  0.36807462  0.23641072     0.08500
C1156       C  0.12355632  0.36092846  0.21233274    -0.18300
C1157       C  0.13907345  0.28684352  0.37085623    -0.17400
C1158       C  0.13176141  0.26282049  0.37028843     0.06600
C1159       C  0.12730021  0.23407171  0.36578591     0.08500
C1160       C  0.12688229  0.21001430  0.35855848    -0.18300
C1161       C  0.25730950  0.31588799  0.39802101    -0.17400
C1162       C  0.27428536  0.29790020  0.40211884     0.06600
C1163       C  0.29373104  0.27590500  0.40148561     0.08500
C1164       C  0.30988098  0.25728102  0.39687779    -0.18300
C1165       C  0.31585482  0.39561384  0.26078232    -0.17400
C1166       C  0.29782221  0.39977986  0.27769451     0.06600
C1167       C  0.27571413  0.39927504  0.29701193     0.08500
C1168       C  0.25698344  0.39478678  0.31306257    -0.18300
C1169       C  0.53600876  0.62390447  0.16849929    -0.17400
C1170       C  0.51102093  0.62411191  0.16585050     0.06600
C1171       C  0.48158919  0.62350145  0.16519059     0.08500
C1172       C  0.45654231  0.62233102  0.16679214    -0.18300
C1173       C  0.73808269  0.60165770  0.31283836    -0.17400
C1174       C  0.71936837  0.59729988  0.29671222     0.06600
C1175       C  0.69733634  0.59698977  0.27728529     0.08500
C1176       C  0.67939853  0.60129087  0.26029530    -0.18300
C1177       C  0.45963152  0.83027823  0.37484494    -0.17400
C1178       C  0.48462190  0.83287683  0.37466784     0.06600
C1179       C  0.51405571  0.83347026  0.37532289     0.08500
C1180       C  0.53910049  0.83184145  0.37651398    -0.18300
C1181       C  0.60084672  0.68694097  0.25887984    -0.17400
C1182       C  0.59628664  0.70308305  0.27751463     0.06600
C1183       C  0.59581149  0.72240913  0.29960815     0.08500
C1184       C  0.60008997  0.73922872  0.31769536    -0.18300
C1185       C  0.73769149  0.68038204  0.39802309    -0.17400
C1186       C  0.72075210  0.69841039  0.40212756     0.06600
C1187       C  0.70138719  0.72048452  0.40147776     0.08500
C1188       C  0.68532004  0.73917926  0.39685191    -0.18300
C1189       C  0.62439048  0.71004179  0.13768731    -0.17400
C1190       C  0.62459687  0.73410958  0.13053441     0.06600
C1191       C  0.62885053  0.76291790  0.12632738     0.08500
C1192       C  0.63595010  0.78700413  0.12623608    -0.18300
C1193       C  0.63981949  0.86906895  0.21182021    -0.17400
C1194       C  0.63258189  0.86862710  0.23586222     0.06600
C1195       C  0.62812229  0.86421268  0.26461228     0.08500
C1196       C  0.62762187  0.85696630  0.28864858    -0.18300
C1197       C  0.95947596  0.66750076  0.12556387    -0.17400
C1198       C  0.98447063  0.66493569  0.12580621     0.06600
C1199       C  0.01390043  0.66422383  0.12524470     0.08500
C1200       C  0.03895674  0.66567093  0.12410993    -0.18300
C1201       C  0.75706894  0.81091756  0.10328005    -0.17400
C1202       C  0.77563385  0.79466823  0.09876514     0.06600
C1203       C  0.79751793  0.77508498  0.09832642     0.08500
C1204       C  0.81540334  0.75803715  0.10259638    -0.18300
C1205       C  0.78626665  0.63985250  0.13009618    -0.17400
C1206       C  0.76226091  0.63250495  0.13059405     0.06600
C1207       C  0.73352538  0.62803297  0.13506851     0.08500
C1208       C  0.70948458  0.62763418  0.14230714    -0.18300
C1209       C  0.87149553  0.63648501  0.21213406    -0.17400
C1210       C  0.87125484  0.62921316  0.23616473     0.06600
C1211       C  0.86688990  0.62474318  0.26491211     0.08500
C1212       C  0.85966078  0.62443305  0.28895601    -0.18300
C1213       C  0.95650633  0.87489320  0.33280898    -0.17400
C1214       C  0.98155586  0.87374331  0.33439722     0.06600
C1215       C  0.01098669  0.87310991  0.33391382     0.08500
C1216       C  0.03599639  0.87327445  0.33150886    -0.18300
C1217       C  0.89489128  0.81686961  0.24006818    -0.17400
C1218       C  0.89908878  0.79886423  0.22313844     0.06600
C1219       C  0.89858702  0.77674012  0.20384640     0.08500
C1220       C  0.89407525  0.75796931  0.18784539    -0.18300
C1221       C  0.80955369  0.89561196  0.24139489    -0.17400
C1222       C  0.79350337  0.90016122  0.22267005     0.06600
C1223       C  0.77428193  0.90063979  0.20047083     0.08500
C1224       C  0.75750737  0.89637457  0.18232858    -0.18300
C1225       C  0.70947224  0.86054525  0.37434545    -0.17400
C1226       C  0.73354846  0.86766937  0.37427204     0.06600
C1227       C  0.76234863  0.87190532  0.37003442     0.08500
C1228       C  0.78639636  0.87204984  0.36281886    -0.18300
C1229       C  0.86823148  0.78654089  0.35786001    -0.17400
C1230       C  0.86769751  0.76252334  0.36517522     0.06600
C1231       C  0.86313747  0.73383134  0.36986392     0.08500
C1232       C  0.85578940  0.70982742  0.37058404    -0.18300
C1233       C  0.53593478  0.16724671  0.37548464    -0.17400
C1234       C  0.51095543  0.16454211  0.37530046     0.06600
C1235       C  0.48152704  0.16373577  0.37586995     0.08500
C1236       C  0.45646752  0.16518503  0.37696129    -0.18300
C1237       C  0.62277608  0.46041755  0.16957190    -0.17400
C1238       C  0.62287979  0.48540383  0.16700063     0.06600
C1239       C  0.62219771  0.51482940  0.16624522     0.08500
C1240       C  0.62103468  0.53988230  0.16764546    -0.18300
C1241       C  0.53907038  0.37524294  0.16755047    -0.17400
C1242       C  0.51400662  0.37407608  0.16608122     0.06600
C1243       C  0.48456877  0.37339339  0.16679516     0.08500
C1244       C  0.45957096  0.37350035  0.16941254    -0.18300
C1245       C  0.60034543  0.31596418  0.25949038    -0.17400
C1246       C  0.59601177  0.29788804  0.27629484     0.06600
C1247       C  0.59635989  0.27582919  0.29565145     0.08500
C1248       C  0.60080906  0.25721614  0.31184358    -0.18300
C1249       C  0.66469249  0.95735087  0.12376692    -0.17400
C1250       C  0.66296923  0.98238426  0.12495224     0.06600
C1251       C  0.66338020  0.01181589  0.12562839     0.08500
C1252       C  0.66580819  0.03681784  0.12550239    -0.18300
C1253       C  0.62349263  0.13582728  0.28906749    -0.17400
C1254       C  0.62343117  0.12873225  0.26497201     0.06600
C1255       C  0.62745992  0.12462124  0.23611239     0.08500
C1256       C  0.63449080  0.12460338  0.21200404    -0.18300
C1257       C  0.62716320  0.28720439  0.14151497    -0.17400
C1258       C  0.62747774  0.26313691  0.13431733     0.06600
C1259       C  0.63172785  0.23432001  0.13004735     0.08500
C1260       C  0.63883407  0.21022553  0.12976561    -0.18300
C1261       C  0.95937683  0.12295090  0.33069710    -0.17400
C1262       C  0.98438357  0.12319583  0.33320839     0.06600
C1263       C  0.01382314  0.12269172  0.33394325     0.08500
C1264       C  0.03889571  0.12163972  0.33258589    -0.18300
C1265       C  0.87264278  0.96003493  0.33216311    -0.17400
C1266       C  0.87238890  0.98500994  0.33480538     0.06600
C1267       C  0.87291357  0.01443302  0.33538030     0.08500
C1268       C  0.87399932  0.03946387  0.33368533    -0.18300
C1269       C  0.81455638  0.10037966  0.24115220    -0.17400
C1270       C  0.79642849  0.09626792  0.22432558     0.06600
C1271       C  0.77434501  0.09696710  0.20497937     0.08500
C1272       C  0.75573981  0.10166774  0.18883396    -0.18300
C1273       C  0.78623058  0.12820816  0.35918408    -0.17400
C1274       C  0.76219554  0.12878691  0.36646513     0.06600
C1275       C  0.73342505  0.13328875  0.37081839     0.08500
C1276       C  0.70936224  0.14051102  0.37114909    -0.18300
C1277       C  0.83093093  0.45703576  0.37702456    -0.17400
C1278       C  0.83231305  0.48209398  0.37591919     0.06600
C1279       C  0.83147195  0.51152157  0.37534925     0.08500
C1280       C  0.82877504  0.53650012  0.37556011    -0.18300
C1281       C  0.73863491  0.39557082  0.31794456    -0.17400
C1282       C  0.72162486  0.39973618  0.30000077     0.06600
C1283       C  0.70211271  0.39923886  0.27805250     0.08500
C1284       C  0.68589588  0.39477099  0.25944867    -0.18300
C1285       C  0.86084253  0.28681486  0.37402814    -0.17400
C1286       C  0.86796572  0.26273337  0.37372674     0.06600
C1287       C  0.87208424  0.23393128  0.36929664     0.08500
C1288       C  0.87206445  0.20987158  0.36208891    -0.18300
C1289       C  0.67988664  0.25840493  0.39710176    -0.17400
C1290       C  0.69806275  0.27516189  0.40125789     0.06600
C1291       C  0.72032114  0.29430102  0.40079135     0.08500
C1292       C  0.73913088  0.31027509  0.39637624    -0.18300
C1293       C  0.95646242  0.33041943  0.12372248    -0.17400
C1294       C  0.98151059  0.33195119  0.12493563     0.06600
C1295       C  0.01094419  0.33146235  0.12568530     0.08500
C1296       C  0.03596002  0.32910845  0.12562149    -0.18300
C1297       C  0.80906695  0.23953601  0.10386533    -0.17400
C1298       C  0.79288598  0.22088146  0.09950604     0.06600
C1299       C  0.77352837  0.19880828  0.09918563     0.08500
C1300       C  0.75667042  0.18076144  0.10347278    -0.18300
C1301       C  0.89371878  0.18535663  0.24057438    -0.17400
C1302       C  0.89820295  0.20145969  0.22189795     0.06600
C1303       C  0.89871721  0.22094408  0.19995351     0.08500
C1304       C  0.89457925  0.23802685  0.18208741    -0.18300
C1305       C  0.85696712  0.36884385  0.28886051    -0.17400
C1306       C  0.86419332  0.36828250  0.26481432     0.06600
C1307       C  0.86849622  0.36371333  0.23605658     0.08500
C1308       C  0.86878012  0.35640974  0.21202254    -0.18300
C1309       C  0.70940923  0.37273574  0.13804448    -0.17400
C1310       C  0.73351445  0.37261747  0.13098911     0.06600
C1311       C  0.76233668  0.36832170  0.12683801     0.08500
C1312       C  0.78639174  0.36108075  0.12673510    -0.18300
C1313       C  0.62277585  0.82957733  0.46189310    -0.17400
C1314       C  0.62300672  0.83202993  0.48689208     0.06600
C1315       C  0.62245413  0.83254152  0.51631741     0.08500
C1316       C  0.62135253  0.83094405  0.54135865    -0.18300
C1317       C  0.60031417  0.68100778  0.74090618    -0.17400
C1318       C  0.59608861  0.69898200  0.72396006     0.06600
C1319       C  0.59656223  0.72093037  0.70447896     0.08500
C1320       C  0.60108904  0.73949196  0.68825748    -0.18300
C1321       C  0.82951965  0.62326231  0.53875821    -0.17400
C1322       C  0.83193877  0.62341970  0.51374696     0.06600
C1323       C  0.83235945  0.62282779  0.48430639     0.08500
C1324       C  0.83064776  0.62172659  0.45925969    -0.18300
C1325       C  0.73949703  0.68669111  0.60402993    -0.17400
C1326       C  0.72072033  0.70269824  0.59952197     0.06600
C1327       C  0.69846596  0.72186521  0.59896073     0.08500
C1328       C  0.68027317  0.73862750  0.60307320    -0.18300
C1329       C  0.73852731  0.60157884  0.68266545    -0.17400
C1330       C  0.72147372  0.59743538  0.70055844     0.06600
C1331       C  0.70193098  0.59789419  0.72246764     0.08500
C1332       C  0.68570552  0.60231038  0.74106703    -0.18300
C1333       C  0.66434460  0.87510010  0.95898723    -0.17400
C1334       C  0.66293018  0.87406234  0.98404712     0.06600
C1335       C  0.66374917  0.87352985  0.01347110     0.08500
C1336       C  0.66644957  0.87373442  0.03845004    -0.18300
C1337       C  0.63490075  0.87197001  0.78866073    -0.17400
C1338       C  0.62788488  0.87192729  0.76454328     0.06600
C1339       C  0.62379356  0.86781773  0.73568764     0.08500
C1340       C  0.62376560  0.86075269  0.71158410    -0.18300
C1341       C  0.62709506  0.70966912  0.85924365    -0.17400
C1342       C  0.62739485  0.73371874  0.86650500     0.06600
C1343       C  0.63163517  0.76252732  0.87084275     0.08500
C1344       C  0.63876051  0.78661198  0.87116166    -0.18300
C1345       C  0.87413320  0.66508728  0.04181239    -0.17400
C1346       C  0.87292562  0.66351053  0.01677525     0.06600
C1347       C  0.87225336  0.66419762  0.98736058     0.08500
C1348       C  0.87241103  0.66685292  0.96238679    -0.18300
C1349       C  0.86865430  0.64025566  0.78898482    -0.17400
C1350       C  0.86834635  0.63297161  0.76494675     0.06600
C1351       C  0.86404122  0.62843185  0.73618372     0.08500
C1352       C  0.85685083  0.62789825  0.71212253    -0.18300
C1353       C  0.78634231  0.63541108  0.87410903    -0.17400
C1354       C  0.76228173  0.62821171  0.87386097     0.06600
C1355       C  0.73346687  0.62403422  0.86954620     0.08500
C1356       C  0.70937789  0.62402757  0.86242052    -0.18300
C1357       C  0.80891430  0.75697481  0.89732345    -0.17400
C1358       C  0.79274837  0.77563157  0.90176702     0.06600
C1359       C  0.77342348  0.79774481  0.90215867     0.08500
C1360       C  0.75660105  0.81583682  0.89786150    -0.18300
C1361       C  0.87223038  0.78675293  0.63845475    -0.17400
C1362       C  0.87229944  0.76268976  0.63124965     0.06600
C1363       C  0.86824113  0.73386818  0.62688416     0.08500
C1364       C  0.86114701  0.70977953  0.62666267    -0.18300
C1365       C  0.89450746  0.75840588  0.81892043    -0.17400
C1366       C  0.89873204  0.77535117  0.80094827     0.06600
C1367       C  0.89834138  0.79469788  0.77887595     0.08500
C1368       C  0.89394834  0.81075343  0.76012974    -0.18300
C1369       C  0.78629164  0.86857859  0.64187389    -0.17400
C1370       C  0.76226220  0.86815338  0.63455430     0.06600
C1371       C  0.73349388  0.86377865  0.63006962     0.08500
C1372       C  0.70943298  0.85658049  0.62959946    -0.18300
C1373       C  0.81488695  0.89570056  0.75993402    -0.17400
C1374       C  0.79679564  0.89982948  0.77678190     0.06600
C1375       C  0.77472677  0.89921732  0.79612329     0.08500
C1376       C  0.75609552  0.89461847  0.81224657    -0.18300
C1377       C  0.16490699  0.62147352  0.54166321    -0.17400
C1378       C  0.16349349  0.62267594  0.51660763     0.06600
C1379       C  0.16428548  0.62338862  0.48718617     0.08500
C1380       C  0.16694957  0.62329192  0.46220290    -0.18300
C1381       C  0.53604140  0.82942143  0.62495385    -0.17400
C1382       C  0.51103738  0.83197323  0.62518078     0.06600
C1383       C  0.48159124  0.83260213  0.62467865     0.08500
C1384       C  0.45652819  0.83105271  0.62363929    -0.18300
C1385       C  0.37297254  0.82908382  0.53842959    -0.17400
C1386       C  0.37289047  0.83167483  0.51344037     0.06600
C1387       C  0.37358686  0.83243640  0.48401486     0.08500
C1388       C  0.37474766  0.83105296  0.45895657    -0.18300
C1389       C  0.30992699  0.73886469  0.60372018    -0.17400
C1390       C  0.29377354  0.72020147  0.59927830     0.06600
C1391       C  0.27432437  0.69820230  0.59884255     0.08500
C1392       C  0.25734467  0.68024758  0.60305407    -0.18300
C1393       C  0.45954004  0.62349401  0.83178349    -0.17400
C1394       C  0.48454524  0.62363525  0.83429719     0.06600
C1395       C  0.51397952  0.62297656  0.83483181     0.08500
C1396       C  0.53902898  0.62181195  0.83320722    -0.18300
C1397       C  0.31568678  0.60133025  0.74066352    -0.17400
C1398       C  0.29762979  0.59707070  0.72379913     0.06600
C1399       C  0.27549290  0.59744029  0.70450683     0.08500
C1400       C  0.25675008  0.60182452  0.68843389    -0.18300
C1401       C  0.39443747  0.68677874  0.74175232    -0.17400
C1402       C  0.39896800  0.70285814  0.72306973     0.06600
C1403       C  0.39945670  0.72208493  0.70090429     0.08500
C1404       C  0.39521988  0.73883303  0.68275023    -0.18300
C1405       C  0.95946323  0.87351623  0.67001803    -0.17400
C1406       C  0.98445582  0.87326689  0.66741099     0.06600
C1407       C  0.01388310  0.87375796  0.66657577     0.08500
C1408       C  0.03895614  0.87479301  0.66788742    -0.18300
C1409       C  0.12677891  0.78636336  0.64189352    -0.17400
C1410       C  0.12719147  0.76231701  0.63464680     0.06600
C1411       C  0.13167551  0.73357300  0.63019310     0.08500
C1412       C  0.13901334  0.70955625  0.62973926    -0.18300
C1413       C  0.20905325  0.87158655  0.63712333    -0.17400
C1414       C  0.23313283  0.87144629  0.62997600     0.06600
C1415       C  0.26198025  0.86728168  0.62584832     0.08500
C1416       C  0.28609948  0.86024980  0.62586983    -0.18300
C1417       C  0.12116494  0.66527964  0.95922409    -0.17400
C1418       C  0.12222311  0.66372199  0.98427588     0.06600
C1419       C  0.12275173  0.66436446  0.01371050     0.08500
C1420       C  0.12254023  0.66694993  0.03870207    -0.18300
C1421       C  0.03593271  0.66771213  0.87567472    -0.17400
C1422       C  0.01091539  0.66530638  0.87559452     0.06600
C1423       C  0.98147490  0.66473704  0.87629161     0.08500
C1424       C  0.95641218  0.66620253  0.87744973    -0.18300
C1425       C  0.13521116  0.62435649  0.71191890    -0.17400
C1426       C  0.12804408  0.62455103  0.73598926     0.06600
C1427       C  0.12377241  0.62883056  0.76479616     0.08500
C1428       C  0.12363476  0.63597196  0.78888050    -0.18300
C1429       C  0.20919409  0.63937477  0.87087041    -0.17400
C1430       C  0.23325408  0.63215384  0.87035287     0.06600
C1431       C  0.26203908  0.62786358  0.86586830     0.08500
C1432       C  0.28609348  0.62756748  0.85863078    -0.18300
C1433       C  0.10172487  0.75758331  0.81271000    -0.17400
C1434       C  0.09732935  0.77627534  0.79658921     0.06600
C1435       C  0.09688668  0.79828042  0.77716104     0.08500
C1436       C  0.10103773  0.81620973  0.76014919    -0.18300
C1437       C  0.32863708  0.87356799  0.96196895    -0.17400
C1438       C  0.33105782  0.87340763  0.98697623     0.06600
C1439       C  0.33154904  0.87401735  0.01640688     0.08500
C1440       C  0.32994326  0.87513812  0.04145308    -0.18300
C1441       C  0.18040824  0.75769283  0.89787824    -0.17400
C1442       C  0.19835231  0.77470438  0.90200089     0.06600
C1443       C  0.22025506  0.79424194  0.90138622     0.08500
C1444       C  0.23879470  0.81047260  0.89677508    -0.18300
C1445       C  0.18642167  0.89482728  0.75851924    -0.17400
C1446       C  0.20252289  0.89941141  0.77718631     0.06600
C1447       C  0.22174902  0.89996214  0.79936783     0.08500
C1448       C  0.23849141  0.89576448  0.81754564    -0.18300
C1449       C  0.37149102  0.70984531  0.86316417    -0.17400
C1450       C  0.37136686  0.73392778  0.87030115     0.06600
C1451       C  0.36716996  0.76276276  0.87444668     0.08500
C1452       C  0.36007922  0.78685798  0.87445334    -0.18300
C1453       C  0.35633074  0.86875258  0.78867321    -0.17400
C1454       C  0.36350353  0.86827914  0.76460310     0.06600
C1455       C  0.36781070  0.86385811  0.73581177     0.08500
C1456       C  0.36817858  0.85663393  0.71174895    -0.18300
C1457       C  0.37413678  0.16576411  0.54159982    -0.17400
C1458       C  0.37307895  0.16420744  0.51654697     0.06600
C1459       C  0.37253410  0.16476001  0.48711287     0.08500
C1460       C  0.37273499  0.16722048  0.46211246    -0.18300
C1461       C  0.16431442  0.45681752  0.62411020    -0.17400
C1462       C  0.16292686  0.48187880  0.62520354     0.06600
C1463       C  0.16378370  0.51131011  0.62574693     0.08500
C1464       C  0.16647665  0.53628784  0.62551730    -0.18300
C1465       C  0.16468607  0.37468811  0.45949245    -0.17400
C1466       C  0.16298270  0.37350694  0.48452793     0.06600
C1467       C  0.16340094  0.37284344  0.51395434     0.08500
C1468       C  0.16584014  0.37299372  0.53895956    -0.18300
C1469       C  0.31559946  0.25837907  0.60307032    -0.17400
C1470       C  0.29745206  0.27516408  0.59888618     0.06600
C1471       C  0.27519315  0.29431216  0.59943278     0.08500
C1472       C  0.25638653  0.31026550  0.60398608    -0.18300
C1473       C  0.37252982  0.46020986  0.83114846    -0.17400
C1474       C  0.37243074  0.48521067  0.83362768     0.06600
C1475       C  0.37314591  0.51464023  0.83426522     0.08500
C1476       C  0.37435079  0.53968890  0.83281766    -0.18300
C1477       C  0.25718121  0.39557377  0.68251333    -0.17400
C1478       C  0.27427098  0.39978180  0.70036871     0.06600
C1479       C  0.29382019  0.39929181  0.72227442     0.08500
C1480       C  0.30999592  0.39478180  0.74089672    -0.18300
C1481       C  0.39534373  0.31581680  0.74111101    -0.17400
C1482       C  0.39961790  0.29777805  0.72423089     0.06600
C1483       C  0.39912449  0.27576101  0.70480777     0.08500
C1484       C  0.39453672  0.25717908  0.68860420    -0.18300
C1485       C  0.12244472  0.32952267  0.96251746    -0.17400
C1486       C  0.12269054  0.33221494  0.98750059     0.06600
C1487       C  0.12217364  0.33300902  0.01693573     0.08500
C1488       C  0.12111632  0.33156770  0.04199635    -0.18300
C1489       C  0.28563700  0.37238448  0.86222682    -0.17400
C1490       C  0.26156569  0.37211582  0.86939256     0.06600
C1491       C  0.23280261  0.36767038  0.87377037     0.08500
C1492       C  0.20877288  0.36036784  0.87408816    -0.18300
C1493       C  0.12661891  0.35592866  0.78906936    -0.17400
C1494       C  0.12713953  0.36326282  0.76506102     0.06600
C1495       C  0.13168193  0.36788047  0.73635680     0.08500
C1496       C  0.13900120  0.36848874  0.71234436    -0.18300
C1497       C  0.32882309  0.12356263  0.03861346    -0.17400
C1498       C  0.33135983  0.12371084  0.01362073     0.06600
C1499       C  0.33199285  0.12305988  0.98419693     0.08500
C1500       C  0.33044723  0.12188740  0.95915019    -0.18300
C1501       C  0.33066170  0.95716593  0.87678816    -0.17400
C1502       C  0.33223747  0.98221436  0.87571756     0.06600
C1503       C  0.33163050  0.01164767  0.87517031     0.08500
C1504       C  0.32904296  0.03663728  0.87538364    -0.18300
C1505       C  0.23755069  0.18013892  0.89819473    -0.17400
C1506       C  0.22068993  0.19818185  0.90251434     0.06600
C1507       C  0.20138118  0.22029513  0.90210181     0.08500
C1508       C  0.18528908  0.23898814  0.89759606    -0.18300
C1509       C  0.36750601  0.28698089  0.85905342    -0.17400
C1510       C  0.36690079  0.26294826  0.86631973     0.06600
C1511       C  0.36236654  0.23419798  0.87068819     0.08500
C1512       C  0.35513792  0.21014616  0.87106003    -0.18300
C1513       C  0.35936091  0.12467354  0.78879407    -0.17400
C1514       C  0.36646562  0.12476706  0.76470787     0.06600
C1515       C  0.37072656  0.12892614  0.73589308     0.08500
C1516       C  0.37092931  0.13602964  0.71180955    -0.18300
C1517       C  0.12108089  0.03924998  0.66740415    -0.17400
C1518       C  0.12228973  0.01421538  0.66569954     0.06600
C1519       C  0.12297017  0.98478217  0.66617980     0.08500
C1520       C  0.12283401  0.95978695  0.66867806    -0.18300
C1521       C  0.12322481  0.20964666  0.63899269    -0.17400
C1522       C  0.12337293  0.23370477  0.63180614     0.06600
C1523       C  0.12766624  0.26248209  0.62742385     0.08500
C1524       C  0.13487007  0.28653601  0.62713852    -0.18300
C1525       C  0.20888076  0.12807429  0.64234063    -0.17400
C1526       C  0.23287432  0.12875134  0.63494240     0.06600
C1527       C  0.26157819  0.13336348  0.63032044     0.08500
C1528       C  0.28561081  0.14064469  0.62974899    -0.18300
C1529       C  0.10067575  0.18530078  0.76036401    -0.17400
C1530       C  0.09615216  0.20139816  0.77906153     0.06600
C1531       C  0.09564321  0.22083186  0.80108219     0.08500
C1532       C  0.09983359  0.23784545  0.81902361    -0.18300
C1533       C  0.17965469  0.10010350  0.76029791    -0.17400
C1534       C  0.19767740  0.09588150  0.77720023     0.06600
C1535       C  0.21971711  0.09646611  0.79658733     0.08500
C1536       C  0.23834430  0.10113483  0.81270981    -0.18300
C1537       C  0.53862000  0.16512994  0.62386016    -0.17400
C1538       C  0.51357286  0.16353298  0.62498812     0.06600
C1539       C  0.48413989  0.16415732  0.62561015     0.08500
C1540       C  0.45915061  0.16677565  0.62544319    -0.18300
C1541       C  0.62107776  0.16639419  0.45919794    -0.17400
C1542       C  0.62212358  0.16483011  0.48425321     0.06600
C1543       C  0.62264047  0.16528620  0.51369578     0.08500
C1544       C  0.62240598  0.16763771  0.53871332    -0.18300
C1545       C  0.83081177  0.53960504  0.62404326    -0.17400
C1546       C  0.83214272  0.51453860  0.62514530     0.06600
C1547       C  0.83128767  0.48510557  0.62568549     0.08500
C1548       C  0.82862437  0.46012102  0.62544958    -0.18300
C1549       C  0.82910044  0.37323556  0.46216448    -0.17400
C1550       C  0.83149496  0.37307272  0.48718400     0.06600
C1551       C  0.83196174  0.37369232  0.51662957     0.08500
C1552       C  0.83034331  0.37482662  0.54168404    -0.18300
C1553       C  0.73775058  0.31609105  0.60336190    -0.17400
C1554       C  0.72069200  0.29817704  0.59927578     0.06600
C1555       C  0.70116628  0.27625425  0.59985636     0.08500
C1556       C  0.68498113  0.25764670  0.60437522    -0.18300
C1557       C  0.62085768  0.45702687  0.83280179    -0.17400
C1558       C  0.62204351  0.48208641  0.83414784     0.06600
C1559       C  0.62272707  0.51151523  0.83337759     0.08500
C1560       C  0.62261704  0.53650948  0.83083167    -0.18300
C1561       C  0.53559248  0.37329849  0.83202454    -0.17400
C1562       C  0.51060298  0.37315262  0.83467295     0.06600
C1563       C  0.48116788  0.37377630  0.83536974     0.08500
C1564       C  0.45611291  0.37491270  0.83379891    -0.18300
C1565       C  0.60040836  0.30965036  0.74211122    -0.17400
C1566       C  0.59578489  0.29349541  0.72350146     0.06600
C1567       C  0.59523968  0.27418841  0.70138943     0.08500
C1568       C  0.59949381  0.25740992  0.68325797    -0.18300
C1569       C  0.67940401  0.39505316  0.74067838    -0.17400
C1570       C  0.69747457  0.39929153  0.72382909     0.06600
C1571       C  0.71962655  0.39896382  0.70454903     0.08500
C1572       C  0.73838892  0.39464017  0.68847931    -0.18300
C1573       C  0.03560986  0.12279355  0.66971253    -0.17400
C1574       C  0.01061425  0.12302331  0.66718170     0.06600
C1575       C  0.98118737  0.12251246  0.66655683     0.08500
C1576       C  0.95613239  0.12148056  0.66805792    -0.18300
C1577       C  0.87226710  0.03657169  0.66908621    -0.17400
C1578       C  0.87213378  0.01157326  0.66655692     0.06600
C1579       C  0.87281218  0.98213813  0.66602557     0.08500
C1580       C  0.87400284  0.95709681  0.66766677    -0.18300
C1581       C  0.78600324  0.12478696  0.63784097    -0.17400
C1582       C  0.76192770  0.12494769  0.63068262     0.06600
C1583       C  0.73310592  0.12917368  0.62649653     0.08500
C1584       C  0.70900993  0.13626586  0.62643816    -0.18300
C1585       C  0.85619331  0.28683858  0.63008693    -0.17400
C1586       C  0.86347952  0.26280447  0.63064686     0.06600
C1587       C  0.86789866  0.23405936  0.63518842     0.08500
C1588       C  0.86828704  0.21002360  0.64246067    -0.18300
C1589       C  0.66445154  0.12192033  0.04178358    -0.17400
C1590       C  0.66299433  0.12298327  0.01672262     0.06600
C1591       C  0.66368490  0.12350763  0.98729207     0.08500
C1592       C  0.66625678  0.12327509  0.96229817    -0.18300
C1593       C  0.66467302  0.03949751  0.87694970    -0.17400
C1594       C  0.66310124  0.01445030  0.87571936     0.06600
C1595       C  0.66364069  0.98501017  0.87499233     0.08500
C1596       C  0.66610375  0.96000300  0.87510293    -0.18300
C1597       C  0.62702086  0.13955269  0.71198487    -0.17400
C1598       C  0.62754804  0.13233556  0.73603936     0.06600
C1599       C  0.63200896  0.12800579  0.76481962     0.08500
C1600       C  0.63922253  0.12764440  0.78888486    -0.18300
C1601       C  0.63512884  0.20983812  0.87454706    -0.17400
C1602       C  0.62802860  0.23393530  0.87451808     0.06600
C1603       C  0.62380674  0.26277674  0.87040468     0.08500
C1604       C  0.62365852  0.28686967  0.86331531    -0.18300
C1605       C  0.80903223  0.10167393  0.75924007    -0.17400
C1606       C  0.79297021  0.09715354  0.77794163     0.06600
C1607       C  0.77375524  0.09666347  0.80012276     0.08500
C1608       C  0.75698736  0.10089110  0.81826436    -0.18300
C1609       C  0.87388259  0.33157559  0.95917852    -0.17400
C1610       C  0.87281704  0.33306892  0.98423164     0.06600
C1611       C  0.87229062  0.33231333  0.01365631     0.08500
C1612       C  0.87252002  0.32963843  0.03863267    -0.18300
C1613       C  0.03854989  0.33076259  0.87733286    -0.17400
C1614       C  0.01350291  0.33230569  0.87614426     0.06600
C1615       C  0.98407586  0.33171694  0.87546093     0.08500
C1616       C  0.95907570  0.32924524  0.87558200    -0.18300
C1617       C  0.75639391  0.18630229  0.89729046    -0.17400
C1618       C  0.77494679  0.20256674  0.90176203     0.06600
C1619       C  0.79683595  0.22212915  0.90216973     0.08500
C1620       C  0.81474615  0.23913760  0.89791259    -0.18300
C1621       C  0.89349392  0.23915630  0.81275418    -0.17400
C1622       C  0.89801856  0.22039806  0.79673210     0.06600
C1623       C  0.89859955  0.19826485  0.77743649     0.08500
C1624       C  0.89448333  0.18022593  0.76051394    -0.18300
C1625       C  0.87146989  0.36077641  0.78889419    -0.17400
C1626       C  0.87138805  0.36795598  0.76483328     0.06600
C1627       C  0.86718012  0.37225278  0.73602947     0.08500
C1628       C  0.86003566  0.37240346  0.71195207    -0.18300
C1629       C  0.70903000  0.36925514  0.85867023    -0.17400
C1630       C  0.73308850  0.36898905  0.86588630     0.06600
C1631       C  0.76186608  0.36467712  0.87032674     0.08500
C1632       C  0.78590675  0.35741340  0.87080218    -0.18300
loop_ 
_geom_bond_atom_site_label_1 
_geom_bond_atom_site_label_2 
_geom_bond_distance 
_geom_bond_site_symmetry_2 
_ccdc_geom_bond_type 
O1           C16   1.259       .  A
O1           Al9   1.909       .  S
C2           O12   1.259       .  A
C2            O3   1.259       .  A
C2         C1620   1.434       .  S
O3           Al5   1.907       .  S
O4            C6   1.256       .  A
O4           Al5   1.883       .  S
Al5          O13   1.892       .  S
Al5          O15   1.906       .  S
Al5          O14   1.784       .  S
C6           O19   1.264       .  A
C6         C1632   1.438       .  S
O7           C17   1.259       .  A
O7           Al9   1.902       .  S
O8           C21   1.258       .  A
O8          Al18   1.891       .  S
Al9          O22   1.929       .  S
Al9          O19   1.936       .  S
Al9          O14   1.792       .  S
O10          C17   1.260       .  A
O10         Al18   1.914       .  S
O11          C20   1.262       .  A
O11         Al18   1.923       .  S
O12         Al18   1.904       .  S
O13          C20   1.258       .  A
O14         Al18   1.789       .  S
O15          C16   1.259       .  A
C16        C1625   1.437       .  S
C17        C1609   1.438       .  S
C20        C1621   1.435       .  S
C21          O22   1.264       .  A
C21        C1616   1.438       .  S
O23          C38   1.259       .  A
O23         Al31   1.910       .  S
C24          O34   1.259       .  A
C24          O25   1.259       .  A
C24        C1608   1.434       .  S
O25         Al27   1.906       .  S
O26          C28   1.257       .  A
O26         Al27   1.884       .  S
Al27         O35   1.891       .  S
Al27         O37   1.906       .  S
Al27         O36   1.784       .  S
C28          O41   1.265       .  A
C28        C1600   1.439       .  S
O29          C39   1.259       .  A
O29         Al31   1.902       .  S
O30          C43   1.258       .  A
O30         Al40   1.891       .  S
Al31         O44   1.930       .  S
Al31         O41   1.938       .  S
Al31         O36   1.791       .  S
O32          C39   1.261       .  A
O32         Al40   1.915       .  S
O33          C42   1.262       .  A
O33         Al40   1.924       .  S
O34         Al40   1.904       .  S
O35          C42   1.258       .  A
O36         Al40   1.789       .  S
O37          C38   1.258       .  A
C38        C1601   1.438       .  S
C39        C1593   1.439       .  S
C42        C1617   1.435       .  S
C43          O44   1.264       .  A
C43        C1592   1.439       .  S
O45          C60   1.259       .  A
O45         Al53   1.909       .  S
C46          O56   1.259       .  A
C46          O47   1.259       .  A
C46        C1624   1.434       .  S
O47         Al49   1.906       .  S
O48          C50   1.257       .  A
O48         Al49   1.884       .  S
Al49         O57   1.892       .  S
Al49         O59   1.906       .  S
Al49         O58   1.784       .  S
C50          O63   1.265       .  A
C50        C1588   1.438       .  S
O51          C61   1.259       .  A
O51         Al53   1.902       .  S
O52          C65   1.258       .  A
O52         Al62   1.891       .  S
Al53         O66   1.929       .  S
Al53         O63   1.936       .  S
Al53         O58   1.791       .  S
O54          C61   1.261       .  A
O54         Al62   1.914       .  S
O55          C64   1.262       .  A
O55         Al62   1.923       .  S
O56         Al62   1.905       .  S
O57          C64   1.258       .  A
O58         Al62   1.789       .  S
O59          C60   1.258       .  A
C60        C1581   1.437       .  S
C61        C1576   1.438       .  S
C64        C1605   1.435       .  S
C65          O66   1.264       .  A
C65        C1577   1.439       .  S
O67          C82   1.260       .  A
O67         Al75   1.910       .  S
C68          O78   1.259       .  A
C68          O69   1.259       .  A
C68        C1569   1.434       .  S
O69         Al71   1.906       .  S
O70          C72   1.257       .  A
O70         Al71   1.884       .  S
Al71         O79   1.892       .  S
Al71         O81   1.906       .  S
Al71         O80   1.784       .  S
C72          O85   1.265       .  A
C72        C1629   1.438       .  S
O73          C83   1.259       .  A
O73         Al75   1.902       .  S
O74          C87   1.258       .  A
O74         Al84   1.891       .  S
Al75         O88   1.929       .  S
Al75         O85   1.936       .  S
Al75         O80   1.792       .  S
O76          C83   1.260       .  A
O76         Al84   1.914       .  S
O77          C86   1.262       .  A
O77         Al84   1.923       .  S
O78         Al84   1.905       .  S
O79          C86   1.258       .  A
O80         Al84   1.789       .  S
O81          C82   1.258       .  A
C82        C1604   1.438       .  S
C83        C1557   1.438       .  S
C86        C1565   1.434       .  S
C87          O88   1.264       .  A
C87        C1561   1.439       .  S
O89         C104   1.259       .  A
O89         Al97   1.909       .  S
C90         O100   1.259       .  A
C90          O91   1.259       .  A
C90        C1553   1.434       .  S
O91         Al93   1.906       .  S
O92          C94   1.256       .  A
O92         Al93   1.884       .  S
Al93        O101   1.892       .  S
Al93        O103   1.906       .  S
Al93        O102   1.784       .  S
C94         O107   1.265       .  A
C94        C1585   1.438       .  S
O95         C105   1.259       .  A
O95         Al97   1.903       .  S
O96         C109   1.258       .  A
O96        Al106   1.892       .  S
Al97        O110   1.929       .  S
Al97        O107   1.937       .  S
Al97        O102   1.792       .  S
O98         C105   1.261       .  A
O98        Al106   1.915       .  S
O99         C108   1.262       .  A
O99        Al106   1.924       .  S
O100       Al106   1.905       .  S
O101        C108   1.258       .  A
O102       Al106   1.789       .  S
O103        C104   1.258       .  A
C104       C1628   1.437       .  S
C105       C1552   1.439       .  S
C108       C1572   1.435       .  S
C109        O110   1.264       .  A
C109       C1548   1.439       .  S
O111        C126   1.259       .  A
O111       Al119   1.909       .  S
C112        O122   1.259       .  A
C112        O113   1.259       .  A
C112       C1568   1.433       .  S
O113       Al115   1.906       .  S
O114        C116   1.256       .  A
O114       Al115   1.883       .  S
Al115       O123   1.891       .  S
Al115       O125   1.906       .  S
Al115       O124   1.784       .  S
C116        O129   1.265       .  A
C116       C1597   1.438       .  S
O117        C127   1.259       .  A
O117       Al119   1.902       .  S
O118        C131   1.258       .  A
O118       Al128   1.891       .  S
Al119       O132   1.930       .  S
Al119       O129   1.938       .  S
Al119       O124   1.791       .  S
O120        C127   1.261       .  A
O120       Al128   1.914       .  S
O121        C130   1.262       .  A
O121       Al128   1.924       .  S
O122       Al128   1.904       .  S
O123        C130   1.258       .  A
O124       Al128   1.789       .  S
O125        C126   1.259       .  A
C126       C1584   1.437       .  S
C127       C1537   1.438       .  S
C130       C1556   1.435       .  S
C131        O132   1.264       .  A
C131       C1544   1.439       .  S
O133        C148   1.259       .  A
O133       Al141   1.909       .  S
C134        O144   1.259       .  A
C134        O135   1.259       .  A
C134       C1533   1.433       .  S
O135       Al137   1.906       .  S
O136        C138   1.257       .  A
O136       Al137   1.884       .  S
Al137       O145   1.891       .  S
Al137       O147   1.906       .  S
Al137       O146   1.783       .  S
C138        O151   1.265       .  A
C138       C1525   1.438       .  S
O139        C149   1.259       .  A
O139       Al141   1.902       .  S
O140        C153   1.258       .  A
O140       Al150   1.890       .  S
Al141       O154   1.929       .  S
Al141       O151   1.936       .  S
Al141       O146   1.791       .  S
O142        C149   1.261       .  A
O142       Al150   1.915       .  S
O143        C152   1.262       .  A
O143       Al150   1.924       .  S
O144       Al150   1.904       .  S
O145        C152   1.258       .  A
O146       Al150   1.789       .  S
O147        C148   1.259       .  A
C148       C1521   1.437       .  S
C149       C1517   1.438       .  S
C152       C1529   1.435       .  S
C153        O154   1.264       .  A
C153       C1573   1.438       .  S
O155        C170   1.259       .  A
O155       Al163   1.909       .  S
C156        O166   1.259       .  A
C156        O157   1.259       .  A
C156       C1505   1.433       .  S
O157       Al159   1.906       .  S
O158        C160   1.257       .  A
O158       Al159   1.884       .  S
Al159       O167   1.891       .  S
Al159       O169   1.906       .  S
Al159       O168   1.784       .  S
C160        O173   1.265       .  A
C160       C1512   1.438       .  S
O161        C171   1.259       .  A
O161       Al163   1.902       .  S
O162        C175   1.258       .  A
O162       Al172   1.890       .  S
Al163       O176   1.929       .  S
Al163       O173   1.937       .  S
Al163       O168   1.791       .  S
O164        C171   1.260       .  A
O164       Al172   1.914       .  S
O165        C174   1.262       .  A
O165       Al172   1.923       .  S
O166       Al172   1.904       .  S
O167        C174   1.258       .  A
O168       Al172   1.789       .  S
O169        C170   1.259       .  A
C170       C1513   1.438       .  S
C171       C1500   1.438       .  S
C174       C1536   1.434       .  S
C175        O176   1.264       .  A
C175       C1504   1.439       .  S
O177        C192   1.260       .  A
O177       Al185   1.909       .  S
C178        O188   1.259       .  A
C178        O179   1.259       .  A
C178       C1532   1.434       .  S
O179       Al181   1.906       .  S
O180        C182   1.257       .  A
O180       Al181   1.884       .  S
Al181       O189   1.891       .  S
Al181       O191   1.906       .  S
Al181       O190   1.784       .  S
C182        O195   1.265       .  A
C182       C1493   1.438       .  S
O183        C193   1.259       .  A
O183       Al185   1.902       .  S
O184        C197   1.258       .  A
O184       Al194   1.891       .  S
Al185       O198   1.929       .  S
Al185       O195   1.936       .  S
Al185       O190   1.791       .  S
O186        C193   1.261       .  A
O186       Al194   1.914       .  S
O187        C196   1.262       .  A
O187       Al194   1.923       .  S
O188       Al194   1.905       .  S
O189        C196   1.258       .  A
O190       Al194   1.789       .  S
O191        C192   1.259       .  A
C192       C1492   1.438       .  S
C193       C1613   1.438       .  S
C196       C1508   1.434       .  S
C197        O198   1.264       .  A
C197       C1485   1.439       .  S
O199        C214   1.260       .  A
O199       Al207   1.910       .  S
C200        O210   1.259       .  A
C200        O201   1.259       .  A
C200       C1481   1.434       .  S
O201       Al203   1.906       .  S
O202        C204   1.256       .  A
O202       Al203   1.883       .  S
Al203       O211   1.891       .  S
Al203       O213   1.906       .  S
Al203       O212   1.784       .  S
C204        O217   1.265       .  A
C204       C1509   1.438       .  S
O205        C215   1.259       .  A
O205       Al207   1.903       .  S
O206        C219   1.258       .  A
O206       Al216   1.891       .  S
Al207       O220   1.929       .  S
Al207       O217   1.937       .  S
Al207       O212   1.791       .  S
O208        C215   1.261       .  A
O208       Al216   1.914       .  S
O209        C218   1.262       .  A
O209       Al216   1.924       .  S
O210       Al216   1.904       .  S
O211        C218   1.258       .  A
O212       Al216   1.789       .  S
O213        C214   1.258       .  A
C214       C1489   1.438       .  S
C215       C1564   1.438       .  S
C218       C1480   1.435       .  S
C219        O220   1.264       .  A
C219       C1473   1.439       .  S
O221        C236   1.260       .  A
O221       Al229   1.909       .  S
C222        O232   1.259       .  A
C222        O223   1.259       .  A
C222       C1477   1.434       .  S
O223       Al225   1.906       .  S
O224        C226   1.257       .  A
O224       Al225   1.884       .  S
Al225       O233   1.892       .  S
Al225       O235   1.906       .  S
Al225       O234   1.784       .  S
C226        O239   1.265       .  A
C226       C1496   1.438       .  S
O227        C237   1.259       .  A
O227       Al229   1.903       .  S
O228        C241   1.258       .  A
O228       Al238   1.890       .  S
Al229       O242   1.929       .  S
Al229       O239   1.936       .  S
Al229       O234   1.792       .  S
O230        C237   1.260       .  A
O230       Al238   1.914       .  S
O231        C240   1.262       .  A
O231       Al238   1.923       .  S
O232       Al238   1.904       .  S
O233        C240   1.258       .  A
O234       Al238   1.789       .  S
O235        C236   1.259       .  A
C236       C1524   1.437       .  S
C237       C1461   1.438       .  S
C240       C1472   1.435       .  S
C241        O242   1.264       .  A
C241       C1468   1.438       .  S
O243        C258   1.260       .  A
O243       Al251   1.909       .  S
C244        O254   1.259       .  A
C244        O245   1.259       .  A
C244       C1469   1.434       .  S
O245       Al247   1.906       .  S
O246        C248   1.257       .  A
O246       Al247   1.884       .  S
Al247       O255   1.891       .  S
Al247       O257   1.906       .  S
Al247       O256   1.784       .  S
C248        O261   1.265       .  A
C248       C1528   1.438       .  S
O249        C259   1.259       .  A
O249       Al251   1.902       .  S
O250        C263   1.258       .  A
O250       Al260   1.891       .  S
Al251       O264   1.929       .  S
Al251       O261   1.937       .  S
Al251       O256   1.791       .  S
O252        C259   1.261       .  A
O252       Al260   1.914       .  S
O253        C262   1.262       .  A
O253       Al260   1.924       .  S
O254       Al260   1.905       .  S
O255        C262   1.258       .  A
O256       Al260   1.789       .  S
O257        C258   1.258       .  A
C258       C1516   1.437       .  S
C259       C1457   1.438       .  S
C262       C1484   1.435       .  S
C263        O264   1.264       .  A
C263       C1540   1.438       .  S
O265        C280   1.259       .  A
O265       Al273   1.909       .  S
C266        O276   1.259       .  A
C266        O267   1.259       .  A
C266       C1448   1.433       .  S
O267       Al269   1.906       .  S
O268        C270   1.256       .  A
O268       Al269   1.883       .  S
Al269       O277   1.891       .  S
Al269       O279   1.906       .  S
Al269       O278   1.784       .  S
C270        O283   1.265       .  A
C270       C1453   1.438       .  S
O271        C281   1.259       .  A
O271       Al273   1.902       .  S
O272        C285   1.258       .  A
O272       Al282   1.891       .  S
Al273       O286   1.930       .  S
Al273       O283   1.938       .  S
Al273       O278   1.791       .  S
O274        C281   1.261       .  A
O274       Al282   1.914       .  S
O275        C284   1.262       .  A
O275       Al282   1.924       .  S
O276       Al282   1.904       .  S
O277        C284   1.258       .  A
O278       Al282   1.789       .  S
O279        C280   1.258       .  A
C280       C1452   1.437       .  S
C281       C1501   1.438       .  S
C284       C1444   1.435       .  S
C285        O286   1.264       .  A
C285       C1437   1.439       .  S
O287        C302   1.260       .  A
O287       Al295   1.910       .  S
C288        O298   1.259       .  A
C288        O289   1.259       .  A
C288       C1441   1.434       .  S
O289       Al291   1.906       .  S
O290        C292   1.256       .  A
O290       Al291   1.883       .  S
Al291       O299   1.892       .  S
Al291       O301   1.906       .  S
Al291       O300   1.784       .  S
C292        O305   1.265       .  A
C292       C1429   1.438       .  S
O293        C303   1.259       .  A
O293       Al295   1.903       .  S
O294        C307   1.258       .  A
O294       Al304   1.891       .  S
Al295       O308   1.930       .  S
Al295       O305   1.938       .  S
Al295       O300   1.792       .  S
O296        C303   1.261       .  A
O296       Al304   1.914       .  S
O297        C306   1.262       .  A
O297       Al304   1.924       .  S
O298       Al304   1.904       .  S
O299        C306   1.258       .  A
O300       Al304   1.789       .  S
O301        C302   1.258       .  A
C302       C1428   1.438       .  S
C303       C1417   1.439       .  S
C306       C1433   1.435       .  S
C307        O308   1.264       .  A
C307       C1421   1.439       .  S
O309        C324   1.260       .  A
O309       Al317   1.910       .  S
C310        O320   1.259       .  A
C310        O311   1.259       .  A
C310       C1436   1.434       .  S
O311       Al313   1.906       .  S
O312        C314   1.257       .  A
O312       Al313   1.884       .  S
Al313       O321   1.892       .  S
Al313       O323   1.906       .  S
Al313       O322   1.784       .  S
C314        O327   1.265       .  A
C314       C1409   1.438       .  S
O315        C325   1.259       .  A
O315       Al317   1.902       .  S
O316        C329   1.258       .  A
O316       Al326   1.891       .  S
Al317       O330   1.929       .  S
Al317       O327   1.936       .  S
Al317       O322   1.792       .  S
O318        C325   1.260       .  A
O318       Al326   1.914       .  S
O319        C328   1.262       .  A
O319       Al326   1.922       .  S
O320       Al326   1.905       .  S
O321        C328   1.258       .  A
O322       Al326   1.789       .  S
O323        C324   1.258       .  A
C324       C1413   1.438       .  S
C325       C1408   1.438       .  S
C328       C1445   1.434       .  S
C329        O330   1.264       .  A
C329       C1520   1.439       .  S
O331        C346   1.259       .  A
O331       Al339   1.909       .  S
C332        O342   1.259       .  A
C332        O333   1.259       .  A
C332       C1397   1.434       .  S
O333       Al335   1.906       .  S
O334        C336   1.257       .  A
O334       Al335   1.884       .  S
Al335       O343   1.892       .  S
Al335       O345   1.906       .  S
Al335       O344   1.784       .  S
C336        O349   1.265       .  A
C336       C1432   1.438       .  S
O337        C347   1.259       .  A
O337       Al339   1.902       .  S
O338        C351   1.258       .  A
O338       Al348   1.891       .  S
Al339       O352   1.929       .  S
Al339       O349   1.937       .  S
Al339       O344   1.791       .  S
O340        C347   1.260       .  A
O340       Al348   1.914       .  S
O341        C350   1.262       .  A
O341       Al348   1.923       .  S
O342       Al348   1.904       .  S
O343        C350   1.258       .  A
O344       Al348   1.789       .  S
O345        C346   1.258       .  A
C346       C1449   1.437       .  S
C347       C1476   1.438       .  S
C350       C1401   1.435       .  S
C351        O352   1.264       .  A
C351       C1393   1.439       .  S
O353        C368   1.260       .  A
O353       Al361   1.910       .  S
C354        O364   1.259       .  A
C354        O355   1.259       .  A
C354       C1404   1.434       .  S
O355       Al357   1.906       .  S
O356        C358   1.256       .  A
O356       Al357   1.884       .  S
Al357       O365   1.891       .  S
Al357       O367   1.906       .  S
Al357       O366   1.784       .  S
C358        O371   1.265       .  A
C358       C1456   1.439       .  S
O359        C369   1.259       .  A
O359       Al361   1.903       .  S
O360        C373   1.258       .  A
O360       Al370   1.891       .  S
Al361       O374   1.929       .  S
Al361       O371   1.937       .  S
Al361       O366   1.791       .  S
O362        C369   1.261       .  A
O362       Al370   1.915       .  S
O363        C372   1.262       .  A
O363       Al370   1.924       .  S
O364       Al370   1.904       .  S
O365        C372   1.258       .  A
O366       Al370   1.789       .  S
O367        C368   1.258       .  A
C368       C1416   1.438       .  S
C369       C1384   1.439       .  S
C372       C1389   1.435       .  S
C373        O374   1.264       .  A
C373       C1385   1.439       .  S
O375        C390   1.260       .  A
O375       Al383   1.910       .  S
C376        O386   1.259       .  A
C376        O377   1.259       .  A
C376       C1392   1.434       .  S
O377       Al379   1.906       .  S
O378        C380   1.256       .  A
O378       Al379   1.884       .  S
Al379       O387   1.892       .  S
Al379       O389   1.906       .  S
Al379       O388   1.784       .  S
C380        O393   1.264       .  A
C380       C1412   1.438       .  S
O381        C391   1.259       .  A
O381       Al383   1.902       .  S
O382        C395   1.258       .  A
O382       Al392   1.892       .  S
Al383       O396   1.928       .  S
Al383       O393   1.936       .  S
Al383       O388   1.792       .  S
O384        C391   1.261       .  A
O384       Al392   1.914       .  S
O385        C394   1.262       .  A
O385       Al392   1.923       .  S
O386       Al392   1.905       .  S
O387        C394   1.258       .  A
O388       Al392   1.790       .  S
O389        C390   1.259       .  A
C390       C1425   1.438       .  S
C391       C1377   1.438       .  S
C394       C1400   1.435       .  S
C395        O396   1.264       .  A
C395       C1464   1.439       .  S
O397        C412   1.259       .  A
O397       Al405   1.909       .  S
C398        O408   1.259       .  A
C398        O399   1.259       .  A
C398       C1373   1.434       .  S
O399       Al401   1.906       .  S
O400        C402   1.256       .  A
O400       Al401   1.884       .  S
Al401       O409   1.892       .  S
Al401       O411   1.906       .  S
Al401       O410   1.784       .  S
C402        O415   1.265       .  A
C402       C1369   1.438       .  S
O403        C413   1.259       .  A
O403       Al405   1.902       .  S
O404        C417   1.258       .  A
O404       Al414   1.891       .  S
Al405       O418   1.929       .  S
Al405       O415   1.936       .  S
Al405       O410   1.791       .  S
O406        C413   1.261       .  A
O406       Al414   1.915       .  S
O407        C416   1.262       .  A
O407       Al414   1.924       .  S
O408       Al414   1.904       .  S
O409        C416   1.258       .  A
O410       Al414   1.790       .  S
O411        C412   1.259       .  A
C412       C1361   1.438       .  S
C413       C1580   1.438       .  S
C416       C1368   1.435       .  S
C417        O418   1.264       .  A
C417       C1405   1.438       .  S
O419        C434   1.260       .  A
O419       Al427   1.909       .  S
C420        O430   1.259       .  A
C420        O421   1.259       .  A
C420       C1365   1.434       .  S
O421       Al423   1.906       .  S
O422        C424   1.257       .  A
O422       Al423   1.884       .  S
Al423       O431   1.892       .  S
Al423       O433   1.906       .  S
Al423       O432   1.784       .  S
C424        O437   1.264       .  A
C424       C1349   1.438       .  S
O425        C435   1.259       .  A
O425       Al427   1.902       .  S
O426        C439   1.258       .  A
O426       Al436   1.891       .  S
Al427       O440   1.928       .  S
Al427       O437   1.936       .  S
Al427       O432   1.792       .  S
O428        C435   1.261       .  A
O428       Al436   1.915       .  S
O429        C438   1.262       .  A
O429       Al436   1.923       .  S
O430       Al436   1.904       .  S
O431        C438   1.258       .  A
O432       Al436   1.789       .  S
O433        C434   1.259       .  A
C434       C1353   1.437       .  S
C435       C1424   1.439       .  S
C438       C1357   1.435       .  S
C439        O440   1.264       .  A
C439       C1348   1.438       .  S
O441        C456   1.259       .  A
O441       Al449   1.909       .  S
C442        O452   1.259       .  A
C442        O443   1.259       .  A
C442       C1360   1.434       .  S
O443       Al445   1.906       .  S
O444        C446   1.256       .  A
O444       Al445   1.883       .  S
Al445       O453   1.891       .  S
Al445       O455   1.906       .  S
Al445       O454   1.784       .  S
C446        O459   1.265       .  A
C446       C1344   1.438       .  S
O447        C457   1.259       .  A
O447       Al449   1.903       .  S
O448        C461   1.258       .  A
O448       Al458   1.891       .  S
Al449       O462   1.930       .  S
Al449       O459   1.937       .  S
Al449       O454   1.791       .  S
O450        C457   1.260       .  A
O450       Al458   1.914       .  S
O451        C460   1.262       .  A
O451       Al458   1.923       .  S
O452       Al458   1.905       .  S
O453        C460   1.258       .  A
O454       Al458   1.789       .  S
O455        C456   1.258       .  A
C456       C1337   1.438       .  S
C457       C1333   1.438       .  S
C460       C1376   1.435       .  S
C461        O462   1.264       .  A
C461       C1596   1.439       .  S
O463        C478   1.260       .  A
O463       Al471   1.910       .  S
C464        O474   1.259       .  A
C464        O465   1.259       .  A
C464       C1329   1.434       .  S
O465       Al467   1.906       .  S
O466        C468   1.256       .  A
O466       Al467   1.884       .  S
Al467       O475   1.892       .  S
Al467       O477   1.905       .  S
Al467       O476   1.784       .  S
C468        O481   1.265       .  A
C468       C1352   1.438       .  S
O469        C479   1.259       .  A
O469       Al471   1.903       .  S
O470        C483   1.258       .  A
O470       Al480   1.891       .  S
Al471       O484   1.930       .  S
Al471       O481   1.937       .  S
Al471       O476   1.792       .  S
O472        C479   1.260       .  A
O472       Al480   1.914       .  S
O473        C482   1.262       .  A
O473       Al480   1.923       .  S
O474       Al480   1.905       .  S
O475        C482   1.258       .  A
O476       Al480   1.789       .  S
O477        C478   1.258       .  A
C478       C1364   1.437       .  S
C479       C1545   1.439       .  S
C482       C1325   1.435       .  S
C483        O484   1.264       .  A
C483       C1321   1.439       .  S
O485        C500   1.259       .  A
O485       Al493   1.909       .  S
C486        O496   1.259       .  A
C486        O487   1.259       .  A
C486       C1317   1.434       .  S
O487       Al489   1.906       .  S
O488        C490   1.256       .  A
O488       Al489   1.883       .  S
Al489       O497   1.891       .  S
Al489       O499   1.907       .  S
Al489       O498   1.784       .  S
C490        O503   1.265       .  A
C490       C1341   1.438       .  S
O491        C501   1.259       .  A
O491       Al493   1.902       .  S
O492        C505   1.258       .  A
O492       Al502   1.891       .  S
Al493       O506   1.929       .  S
Al493       O503   1.937       .  S
Al493       O498   1.792       .  S
O494        C501   1.261       .  A
O494       Al502   1.915       .  S
O495        C504   1.262       .  A
O495       Al502   1.924       .  S
O496       Al502   1.904       .  S
O497        C504   1.258       .  A
O498       Al502   1.789       .  S
O499        C500   1.259       .  A
C500       C1356   1.438       .  S
C501       C1396   1.438       .  S
C504       C1332   1.435       .  S
C505        O506   1.264       .  A
C505       C1560   1.439       .  S
O507        C522   1.259       .  A
O507       Al515   1.909       .  S
C508        O518   1.259       .  A
C508        O509   1.259       .  A
C508       C1328   1.434       .  S
O509       Al511   1.906       .  S
O510        C512   1.256       .  A
O510       Al511   1.884       .  S
Al511       O519   1.891       .  S
Al511       O521   1.906       .  S
Al511       O520   1.784       .  S
C512        O525   1.265       .  A
C512       C1372   1.438       .  S
O513        C523   1.259       .  A
O513       Al515   1.902       .  S
O514        C527   1.258       .  A
O514       Al524   1.891       .  S
Al515       O528   1.929       .  S
Al515       O525   1.937       .  S
Al515       O520   1.791       .  S
O516        C523   1.261       .  A
O516       Al524   1.914       .  S
O517        C526   1.262       .  A
O517       Al524   1.924       .  S
O518       Al524   1.905       .  S
O519        C526   1.258       .  A
O520       Al524   1.789       .  S
O521        C522   1.258       .  A
C522       C1340   1.437       .  S
C523       C1316   1.438       .  S
C526       C1320   1.435       .  S
C527        O528   1.264       .  A
C527       C1381   1.439       .  S
O529        C544   1.259       .  A
O529       Al537   1.909       .  S
C530        O540   1.259       .  A
C530        O531   1.259       .  A
C530       C1304   1.434       .  S
O531       Al533   1.906       .  S
O532        C534   1.257       .  A
O532       Al533   1.884       .  S
Al533       O541   1.892       .  S
Al533       O543   1.907       .  S
Al533       O542   1.784       .  S
C534        O547   1.265       .  A
C534       C1308   1.438       .  S
O535        C545   1.259       .  A
O535       Al537   1.901       .  S
O536        C549   1.258       .  A
O536       Al546   1.891       .  S
Al537       O550   1.929       .  S
Al537       O547   1.936       .  S
Al537       O542   1.792       .  S
O538        C545   1.261       .  A
O538       Al546   1.915       .  S
O539        C548   1.262       .  A
O539       Al546   1.924       .  S
O540       Al546   1.904       .  S
O541        C548   1.258       .  A
O542       Al546   1.789       .  S
O543        C544   1.259       .  A
C544       C1312   1.438       .  S
C545       C1293   1.438       .  S
C548       C1297   1.435       .  S
C549        O550   1.264       .  A
C549       C1612   1.439       .  S
O551        C566   1.260       .  A
O551       Al559   1.909       .  S
C552        O562   1.259       .  A
C552        O553   1.259       .  A
C552       C1281   1.434       .  S
O553       Al555   1.906       .  S
O554        C556   1.256       .  A
O554       Al555   1.884       .  S
Al555       O563   1.892       .  S
Al555       O565   1.906       .  S
Al555       O564   1.784       .  S
C556        O569   1.265       .  A
C556       C1305   1.438       .  S
O557        C567   1.259       .  A
O557       Al559   1.902       .  S
O558        C571   1.258       .  A
O558       Al568   1.891       .  S
Al559       O572   1.930       .  S
Al559       O569   1.937       .  S
Al559       O564   1.792       .  S
O560        C567   1.260       .  A
O560       Al568   1.914       .  S
O561        C570   1.262       .  A
O561       Al568   1.923       .  S
O562       Al568   1.905       .  S
O563        C570   1.258       .  A
O564       Al568   1.789       .  S
O565        C566   1.258       .  A
C566       C1285   1.437       .  S
C567       C1277   1.438       .  S
C570       C1292   1.435       .  S
C571        O572   1.264       .  A
C571       C1549   1.439       .  S
O573        C588   1.259       .  A
O573       Al581   1.908       .  S
C574        O584   1.259       .  A
C574        O575   1.259       .  A
C574       C1269   1.434       .  S
O575       Al577   1.906       .  S
O576        C578   1.256       .  A
O576       Al577   1.883       .  S
Al577       O585   1.891       .  S
Al577       O587   1.906       .  S
Al577       O586   1.784       .  S
C578        O591   1.265       .  A
C578       C1273   1.438       .  S
O579        C589   1.259       .  A
O579       Al581   1.901       .  S
O580        C593   1.258       .  A
O580       Al590   1.891       .  S
Al581       O594   1.929       .  S
Al581       O591   1.937       .  S
Al581       O586   1.791       .  S
O582        C589   1.260       .  A
O582       Al590   1.914       .  S
O583        C592   1.262       .  A
O583       Al590   1.924       .  S
O584       Al590   1.905       .  S
O585        C592   1.258       .  A
O586       Al590   1.790       .  S
O587        C588   1.259       .  A
C588       C1288   1.437       .  S
C589       C1268   1.438       .  S
C592       C1301   1.435       .  S
C593        O594   1.264       .  A
C593       C1261   1.439       .  S
O595        C610   1.259       .  A
O595       Al603   1.909       .  S
C596        O606   1.259       .  A
C596        O597   1.259       .  A
C596       C1300   1.434       .  S
O597       Al599   1.907       .  S
O598        C600   1.256       .  A
O598       Al599   1.883       .  S
Al599       O607   1.892       .  S
Al599       O609   1.906       .  S
Al599       O608   1.784       .  S
C600        O613   1.265       .  A
C600       C1260   1.438       .  S
O601        C611   1.259       .  A
O601       Al603   1.903       .  S
O602        C615   1.258       .  A
O602       Al612   1.890       .  S
Al603       O616   1.929       .  S
Al603       O613   1.937       .  S
Al603       O608   1.791       .  S
O604        C611   1.260       .  A
O604       Al612   1.914       .  S
O605        C614   1.262       .  A
O605       Al612   1.923       .  S
O606       Al612   1.904       .  S
O607        C614   1.258       .  A
O608       Al612   1.789       .  S
O609        C610   1.258       .  A
C610       C1256   1.438       .  S
C611       C1589   1.438       .  S
C614       C1272   1.435       .  S
C615        O616   1.264       .  A
C615       C1252   1.438       .  S
O617        C632   1.260       .  A
O617       Al625   1.910       .  S
C618        O628   1.259       .  A
C618        O619   1.259       .  A
C618       C1245   1.434       .  S
O619       Al621   1.907       .  S
O620        C622   1.256       .  A
O620       Al621   1.883       .  S
Al621       O629   1.891       .  S
Al621       O631   1.906       .  S
Al621       O630   1.784       .  S
C622        O635   1.265       .  A
C622       C1257   1.438       .  S
O623        C633   1.259       .  A
O623       Al625   1.903       .  S
O624        C637   1.258       .  A
O624       Al634   1.891       .  S
Al625       O638   1.929       .  S
Al625       O635   1.937       .  S
Al625       O630   1.791       .  S
O626        C633   1.261       .  A
O626       Al634   1.915       .  S
O627        C636   1.262       .  A
O627       Al634   1.924       .  S
O628       Al634   1.904       .  S
O629        C636   1.258       .  A
O630       Al634   1.789       .  S
O631        C632   1.259       .  A
C632       C1309   1.438       .  S
C633       C1241   1.439       .  S
C636       C1284   1.435       .  S
C637        O638   1.264       .  A
C637       C1237   1.439       .  S
O639        C654   1.259       .  A
O639       Al647   1.909       .  S
C640        O650   1.259       .  A
C640        O641   1.259       .  A
C640       C1289   1.434       .  S
O641       Al643   1.906       .  S
O642        C644   1.256       .  A
O642       Al643   1.884       .  S
Al643       O651   1.891       .  S
Al643       O653   1.906       .  S
Al643       O652   1.784       .  S
C644        O657   1.265       .  A
C644       C1276   1.438       .  S
O645        C655   1.259       .  A
O645       Al647   1.902       .  S
O646        C659   1.258       .  A
O646       Al656   1.891       .  S
Al647       O660   1.929       .  S
Al647       O657   1.937       .  S
Al647       O652   1.791       .  S
O648        C655   1.261       .  A
O648       Al656   1.915       .  S
O649        C658   1.262       .  A
O649       Al656   1.924       .  S
O650       Al656   1.905       .  S
O651        C658   1.258       .  A
O652       Al656   1.789       .  S
O653        C654   1.258       .  A
C654       C1253   1.437       .  S
C655       C1541   1.439       .  S
C658       C1248   1.435       .  S
C659        O660   1.264       .  A
C659       C1233   1.438       .  S
O661        C676   1.259       .  A
O661       Al669   1.908       .  S
C662        O672   1.259       .  A
C662        O663   1.259       .  A
C662       C1217   1.433       .  S
O663       Al665   1.906       .  S
O664        C666   1.257       .  A
O664       Al665   1.884       .  S
Al665       O673   1.892       .  S
Al665       O675   1.906       .  S
Al665       O674   1.784       .  S
C666        O679   1.264       .  A
C666       C1229   1.438       .  S
O667        C677   1.259       .  A
O667       Al669   1.902       .  S
O668        C681   1.258       .  A
O668       Al678   1.890       .  S
Al669       O682   1.929       .  S
Al669       O679   1.936       .  S
Al669       O674   1.791       .  S
O670        C677   1.261       .  A
O670       Al678   1.915       .  S
O671        C680   1.262       .  A
O671       Al678   1.923       .  S
O672       Al678   1.904       .  S
O673        C680   1.258       .  A
O674       Al678   1.789       .  S
O675        C676   1.259       .  A
C676       C1228   1.437       .  S
C677       C1213   1.438       .  S
C680       C1221   1.435       .  S
C681        O682   1.264       .  A
C681       C1265   1.438       .  S
O683        C698   1.259       .  A
O683       Al691   1.909       .  S
C684        O694   1.259       .  A
C684        O685   1.259       .  A
C684       C1204   1.434       .  S
O685       Al687   1.907       .  S
O686        C688   1.257       .  A
O686       Al687   1.884       .  S
Al687       O695   1.891       .  S
Al687       O697   1.907       .  S
Al687       O696   1.784       .  S
C688        O701   1.264       .  A
C688       C1205   1.437       .  S
O689        C699   1.259       .  A
O689       Al691   1.902       .  S
O690        C703   1.258       .  A
O690       Al700   1.891       .  S
Al691       O704   1.929       .  S
Al691       O701   1.936       .  S
Al691       O696   1.791       .  S
O692        C699   1.260       .  A
O692       Al700   1.914       .  S
O693        C702   1.262       .  A
O693       Al700   1.923       .  S
O694       Al700   1.904       .  S
O695        C702   1.258       .  A
O696       Al700   1.789       .  S
O697        C698   1.259       .  A
C698       C1209   1.437       .  S
C699       C1345   1.438       .  S
C702       C1220   1.434       .  S
C703        O704   1.264       .  A
C703       C1197   1.438       .  S
O705        C720   1.259       .  A
O705       Al713   1.909       .  S
C706        O716   1.259       .  A
C706        O707   1.259       .  A
C706       C1224   1.434       .  S
O707       Al709   1.906       .  S
O708        C710   1.256       .  A
O708       Al709   1.884       .  S
Al709       O717   1.891       .  S
Al709       O719   1.906       .  S
Al709       O718   1.784       .  S
C710        O723   1.265       .  A
C710       C1193   1.438       .  S
O711        C721   1.259       .  A
O711       Al713   1.902       .  S
O712        C725   1.258       .  A
O712       Al722   1.891       .  S
Al713       O726   1.929       .  S
Al713       O723   1.936       .  S
Al713       O718   1.791       .  S
O714        C721   1.261       .  A
O714       Al722   1.915       .  S
O715        C724   1.262       .  A
O715       Al722   1.924       .  S
O716       Al722   1.905       .  S
O717        C724   1.258       .  A
O718       Al722   1.789       .  S
O719        C720   1.259       .  A
C720       C1192   1.437       .  S
C721       C1249   1.438       .  S
C724       C1201   1.435       .  S
C725        O726   1.264       .  A
C725       C1336   1.439       .  S
O727        C742   1.259       .  A
O727       Al735   1.908       .  S
C728        O738   1.259       .  A
C728        O729   1.259       .  A
C728       C1184   1.433       .  S
O729       Al731   1.906       .  S
O730        C732   1.256       .  A
O730       Al731   1.884       .  S
Al731       O739   1.892       .  S
Al731       O741   1.906       .  S
Al731       O740   1.784       .  S
C732        O745   1.265       .  A
C732       C1196   1.438       .  S
O733        C743   1.259       .  A
O733       Al735   1.902       .  S
O734        C747   1.258       .  A
O734       Al744   1.890       .  S
Al735       O748   1.929       .  S
Al735       O745   1.936       .  S
Al735       O740   1.791       .  S
O736        C743   1.261       .  A
O736       Al744   1.914       .  S
O737        C746   1.262       .  A
O737       Al744   1.924       .  S
O738       Al744   1.904       .  S
O739        C746   1.258       .  A
O740       Al744   1.789       .  S
O741        C742   1.259       .  A
C742       C1225   1.437       .  S
C743       C1180   1.438       .  S
C746       C1188   1.435       .  S
C747        O748   1.264       .  A
C747       C1313   1.438       .  S
O749        C764   1.259       .  A
O749       Al757   1.909       .  S
C750        O760   1.259       .  A
C750        O751   1.259       .  A
C750       C1185   1.434       .  S
O751       Al753   1.906       .  S
O752        C754   1.257       .  A
O752       Al753   1.884       .  S
Al753       O761   1.891       .  S
Al753       O763   1.906       .  S
Al753       O762   1.784       .  S
C754        O767   1.265       .  A
C754       C1232   1.438       .  S
O755        C765   1.259       .  A
O755       Al757   1.902       .  S
O756        C769   1.258       .  A
O756       Al766   1.891       .  S
Al757       O770   1.929       .  S
Al757       O767   1.936       .  S
Al757       O762   1.792       .  S
O758        C765   1.261       .  A
O758       Al766   1.915       .  S
O759        C768   1.262       .  A
O759       Al766   1.924       .  S
O760       Al766   1.905       .  S
O761        C768   1.258       .  A
O762       Al766   1.789       .  S
O763        C764   1.258       .  A
C764       C1212   1.437       .  S
C765       C1324   1.439       .  S
C768       C1173   1.435       .  S
C769        O770   1.264       .  A
C769       C1280   1.439       .  S
O771        C786   1.259       .  A
O771       Al779   1.909       .  S
C772        O782   1.259       .  A
C772        O773   1.259       .  A
C772       C1176   1.434       .  S
O773       Al775   1.907       .  S
O774        C776   1.257       .  A
O774       Al775   1.884       .  S
Al775       O783   1.891       .  S
Al775       O785   1.906       .  S
Al775       O784   1.784       .  S
C776        O789   1.264       .  A
C776       C1208   1.437       .  S
O777        C787   1.259       .  A
O777       Al779   1.902       .  S
O778        C791   1.258       .  A
O778       Al788   1.891       .  S
Al779       O792   1.929       .  S
Al779       O789   1.936       .  S
Al779       O784   1.791       .  S
O780        C787   1.260       .  A
O780       Al788   1.914       .  S
O781        C790   1.262       .  A
O781       Al788   1.923       .  S
O782       Al788   1.905       .  S
O783        C790   1.258       .  A
O784       Al788   1.789       .  S
O785        C786   1.259       .  A
C786       C1189   1.437       .  S
C787       C1240   1.438       .  S
C790       C1181   1.434       .  S
C791        O792   1.264       .  A
C791       C1169   1.438       .  S
O793        C808   1.259       .  A
O793       Al801   1.909       .  S
C794        O804   1.259       .  A
C794        O795   1.259       .  A
C794       C1161   1.434       .  S
O795       Al797   1.906       .  S
O796        C798   1.257       .  A
O796       Al797   1.884       .  S
Al797       O805   1.892       .  S
Al797       O807   1.906       .  S
Al797       O806   1.784       .  S
C798        O811   1.265       .  A
C798       C1157   1.438       .  S
O799        C809   1.259       .  A
O799       Al801   1.902       .  S
O800        C813   1.258       .  A
O800       Al810   1.891       .  S
Al801       O814   1.929       .  S
Al801       O811   1.937       .  S
Al801       O806   1.792       .  S
O802        C809   1.261       .  A
O802       Al810   1.915       .  S
O803        C812   1.262       .  A
O803       Al810   1.924       .  S
O804       Al810   1.904       .  S
O805        C812   1.258       .  A
O806       Al810   1.790       .  S
O807        C808   1.259       .  A
C808       C1153   1.437       .  S
C809       C1465   1.438       .  S
C812       C1168   1.435       .  S
C813        O814   1.264       .  A
C813       C1149   1.439       .  S
O815        C830   1.259       .  A
O815       Al823   1.909       .  S
C816        O826   1.259       .  A
C816        O817   1.259       .  A
C816       C1165   1.434       .  S
O817       Al819   1.906       .  S
O818        C820   1.257       .  A
O818       Al819   1.884       .  S
Al819       O827   1.891       .  S
Al819       O829   1.906       .  S
Al819       O828   1.784       .  S
C820        O833   1.265       .  A
C820       C1144   1.438       .  S
O821        C831   1.259       .  A
O821       Al823   1.902       .  S
O822        C835   1.258       .  A
O822       Al832   1.891       .  S
Al823       O836   1.930       .  S
Al823       O833   1.937       .  S
Al823       O828   1.791       .  S
O824        C831   1.261       .  A
O824       Al832   1.914       .  S
O825        C834   1.262       .  A
O825       Al832   1.924       .  S
O826       Al832   1.905       .  S
O827        C834   1.258       .  A
O828       Al832   1.789       .  S
O829        C830   1.258       .  A
C830       C1140   1.438       .  S
C831       C1133   1.438       .  S
C834       C1145   1.435       .  S
C835        O836   1.264       .  A
C835       C1244   1.439       .  S
O837        C852   1.259       .  A
O837       Al845   1.909       .  S
C838        O848   1.259       .  A
C838        O839   1.259       .  A
C838       C1148   1.434       .  S
O839       Al841   1.907       .  S
O840        C842   1.256       .  A
O840       Al841   1.883       .  S
Al841       O849   1.891       .  S
Al841       O851   1.906       .  S
Al841       O850   1.784       .  S
C842        O855   1.265       .  A
C842       C1129   1.438       .  S
O843        C853   1.259       .  A
O843       Al845   1.902       .  S
O844        C857   1.258       .  A
O844       Al854   1.891       .  S
Al845       O858   1.930       .  S
Al845       O855   1.937       .  S
Al845       O850   1.791       .  S
O846        C853   1.260       .  A
O846       Al854   1.914       .  S
O847        C856   1.262       .  A
O847       Al854   1.923       .  S
O848       Al854   1.904       .  S
O849        C856   1.258       .  A
O850       Al854   1.789       .  S
O851        C852   1.259       .  A
C852       C1128   1.438       .  S
C853       C1236   1.438       .  S
C856       C1164   1.435       .  S
C857        O858   1.264       .  A
C857       C1460   1.439       .  S
O859        C874   1.260       .  A
O859       Al867   1.910       .  S
C860        O870   1.259       .  A
C860        O861   1.259       .  A
C860       C1124   1.434       .  S
O861       Al863   1.906       .  S
O862        C864   1.256       .  A
O862       Al863   1.884       .  S
Al863       O871   1.892       .  S
Al863       O873   1.905       .  S
Al863       O872   1.784       .  S
C864        O877   1.265       .  A
C864       C1160   1.438       .  S
O865        C875   1.259       .  A
O865       Al867   1.903       .  S
O866        C879   1.258       .  A
O866       Al876   1.892       .  S
Al867       O880   1.929       .  S
Al867       O877   1.937       .  S
Al867       O872   1.792       .  S
O868        C875   1.260       .  A
O868       Al876   1.914       .  S
O869        C878   1.262       .  A
O869       Al876   1.923       .  S
O870       Al876   1.905       .  S
O871        C878   1.258       .  A
O872       Al876   1.789       .  S
O873        C874   1.258       .  A
C874       C1125   1.438       .  S
C875       C1264   1.439       .  S
C878       C1120   1.435       .  S
C879        O880   1.264       .  A
C879       C1113   1.439       .  S
O881        C896   1.260       .  A
O881       Al889   1.910       .  S
C882        O892   1.259       .  A
C882        O883   1.259       .  A
C882       C1117   1.434       .  S
O883       Al885   1.906       .  S
O884        C886   1.256       .  A
O884       Al885   1.883       .  S
Al885       O893   1.891       .  S
Al885       O895   1.906       .  S
Al885       O894   1.784       .  S
C886        O899   1.265       .  A
C886       C1132   1.438       .  S
O887        C897   1.259       .  A
O887       Al889   1.903       .  S
O888        C901   1.258       .  A
O888       Al898   1.891       .  S
Al889       O902   1.929       .  S
Al889       O899   1.937       .  S
Al889       O894   1.791       .  S
O890        C897   1.261       .  A
O890       Al898   1.914       .  S
O891        C900   1.262       .  A
O891       Al898   1.924       .  S
O892       Al898   1.905       .  S
O893        C900   1.258       .  A
O894       Al898   1.789       .  S
O895        C896   1.258       .  A
C896       C1137   1.438       .  S
C897       C1108   1.438       .  S
C900       C1109   1.434       .  S
C901        O902   1.264       .  A
C901       C1497   1.438       .  S
O903        C918   1.260       .  A
O903       Al911   1.909       .  S
C904        O914   1.259       .  A
C904        O905   1.259       .  A
C904       C1112   1.433       .  S
O905       Al907   1.907       .  S
O906        C908   1.256       .  A
O906       Al907   1.883       .  S
Al907       O915   1.892       .  S
Al907       O917   1.906       .  S
Al907       O916   1.784       .  S
C908        O921   1.265       .  A
C908       C1141   1.438       .  S
O909        C919   1.259       .  A
O909       Al911   1.903       .  S
O910        C923   1.258       .  A
O910       Al920   1.891       .  S
Al911       O924   1.930       .  S
Al911       O921   1.937       .  S
Al911       O916   1.791       .  S
O912        C919   1.261       .  A
O912       Al920   1.914       .  S
O913        C922   1.262       .  A
O913       Al920   1.923       .  S
O914       Al920   1.904       .  S
O915        C922   1.258       .  A
O916       Al920   1.789       .  S
O917        C918   1.259       .  A
C918       C1156   1.437       .  S
C919       C1488   1.439       .  S
C922       C1121   1.435       .  S
C923        O924   1.264       .  A
C923       C1296   1.438       .  S
O925        C940   1.260       .  A
O925       Al933   1.910       .  S
C926        O936   1.259       .  A
C926        O927   1.259       .  A
C926       C1104   1.434       .  S
O927       Al929   1.906       .  S
O928        C930   1.257       .  A
O928       Al929   1.884       .  S
Al929       O937   1.891       .  S
Al929       O939   1.906       .  S
Al929       O938   1.784       .  S
C930        O943   1.265       .  A
C930       C1100   1.438       .  S
O931        C941   1.259       .  A
O931       Al933   1.902       .  S
O932        C945   1.258       .  A
O932       Al942   1.891       .  S
Al933       O946   1.929       .  S
Al933       O943   1.936       .  S
Al933       O938   1.791       .  S
O934        C941   1.261       .  A
O934       Al942   1.914       .  S
O935        C944   1.262       .  A
O935       Al942   1.923       .  S
O936       Al942   1.905       .  S
O937        C944   1.258       .  A
O938       Al942   1.789       .  S
O939        C940   1.258       .  A
C940       C1089   1.438       .  S
C941       C1388   1.438       .  S
C944       C1093   1.434       .  S
C945        O946   1.264       .  A
C945       C1177   1.439       .  S
O947        C962   1.260       .  A
O947       Al955   1.909       .  S
C948        O958   1.259       .  A
C948        O949   1.259       .  A
C948       C1088   1.434       .  S
O949       Al951   1.907       .  S
O950        C952   1.256       .  A
O950       Al951   1.884       .  S
Al951       O959   1.892       .  S
Al951       O961   1.906       .  S
Al951       O960   1.784       .  S
C952        O965   1.265       .  A
C952       C1097   1.438       .  S
O953        C963   1.259       .  A
O953       Al955   1.903       .  S
O954        C967   1.258       .  A
O954       Al964   1.890       .  S
Al955       O968   1.929       .  S
Al955       O965   1.936       .  S
Al955       O960   1.792       .  S
O956        C963   1.261       .  A
O956       Al964   1.915       .  S
O957        C966   1.262       .  A
O957       Al964   1.924       .  S
O958       Al964   1.904       .  S
O959        C966   1.258       .  A
O960       Al964   1.789       .  S
O961        C962   1.259       .  A
C962       C1081   1.437       .  S
C963       C1116   1.439       .  S
C966       C1077   1.435       .  S
C967        O968   1.264       .  A
C967       C1216   1.438       .  S
O969        C984   1.259       .  A
O969       Al977   1.910       .  S
C970        O980   1.259       .  A
C970        O971   1.259       .  A
C970       C1072   1.434       .  S
O971       Al973   1.906       .  S
O972        C974   1.256       .  A
O972       Al973   1.884       .  S
Al973       O981   1.891       .  S
Al973       O983   1.906       .  S
Al973       O982   1.784       .  S
C974        O987   1.265       .  A
C974       C1076   1.438       .  S
O975        C985   1.259       .  A
O975       Al977   1.902       .  S
O976        C989   1.258       .  A
O976       Al986   1.891       .  S
Al977       O990   1.929       .  S
Al977       O987   1.937       .  S
Al977       O982   1.791       .  S
O978        C985   1.261       .  A
O978       Al986   1.914       .  S
O979        C988   1.262       .  A
O979       Al986   1.924       .  S
O980       Al986   1.904       .  S
O981        C988   1.258       .  A
O982       Al986   1.789       .  S
O983        C984   1.258       .  A
C984       C1092   1.438       .  S
C985       C1440   1.438       .  S
C988       C1085   1.435       .  S
C989        O990   1.264       .  A
C989       C1105   1.439       .  S
O991       C1006   1.259       .  A
O991       Al999   1.909       .  S
C992       O1002   1.259       .  A
C992        O993   1.259       .  A
C992       C1080   1.434       .  S
O993       Al995   1.906       .  S
O994        C996   1.257       .  A
O994       Al995   1.884       .  S
Al995      O1003   1.892       .  S
Al995      O1005   1.906       .  S
Al995      O1004   1.784       .  S
C996       O1009   1.265       .  A
C996       C1068   1.438       .  S
O997       C1007   1.259       .  A
O997       Al999   1.902       .  S
O998       C1011   1.258       .  A
O998      Al1008   1.891       .  S
Al999      O1012   1.929       .  S
Al999      O1009   1.936       .  S
Al999      O1004   1.792       .  S
O1000      C1007   1.260       .  A
O1000     Al1008   1.914       .  S
O1001      C1010   1.262       .  A
O1001     Al1008   1.923       .  S
O1002     Al1008   1.905       .  S
O1003      C1010   1.258       .  A
O1004     Al1008   1.790       .  S
O1005      C1006   1.258       .  A
C1006      C1064   1.437       .  S
C1007      C1200   1.438       .  S
C1010      C1069   1.435       .  S
C1011      O1012   1.264       .  A
C1011      C1420   1.439       .  S
O1013      C1028   1.259       .  A
O1013     Al1021   1.909       .  S
C1014      O1024   1.259       .  A
C1014      O1015   1.259       .  A
C1014      C1096   1.433       .  S
O1015     Al1017   1.907       .  S
O1016      C1018   1.256       .  A
O1016     Al1017   1.883       .  S
Al1017     O1025   1.891       .  S
Al1017     O1027   1.906       .  S
Al1017     O1026   1.784       .  S
C1018      O1031   1.265       .  A
C1018      C1073   1.438       .  S
O1019      C1029   1.259       .  A
O1019     Al1021   1.902       .  S
O1020      C1033   1.258       .  A
O1020     Al1030   1.890       .  S
Al1021     O1034   1.930       .  S
Al1021     O1031   1.937       .  S
Al1021     O1026   1.791       .  S
O1022      C1029   1.260       .  A
O1022     Al1030   1.914       .  S
O1023      C1032   1.262       .  A
O1023     Al1030   1.924       .  S
O1024     Al1030   1.904       .  S
O1025      C1032   1.258       .  A
O1026     Al1030   1.790       .  S
O1027      C1028   1.259       .  A
C1028      C1061   1.437       .  S
C1029      C1172   1.438       .  S
C1032      C1057   1.435       .  S
C1033      O1034   1.264       .  A
C1033      C1136   1.438       .  S
O1035      C1050   1.259       .  A
O1035     Al1043   1.909       .  S
C1036      O1046   1.259       .  A
C1036      O1037   1.259       .  A
C1036      C1060   1.434       .  S
O1037     Al1039   1.906       .  S
O1038      C1040   1.257       .  A
O1038     Al1039   1.884       .  S
Al1039     O1047   1.892       .  S
Al1039     O1049   1.906       .  S
Al1039     O1048   1.784       .  S
C1040      O1053   1.265       .  A
C1040      C1065   1.438       .  S
O1041      C1051   1.259       .  A
O1041     Al1043   1.902       .  S
O1042      C1055   1.258       .  A
O1042     Al1052   1.891       .  S
Al1043     O1056   1.929       .  S
Al1043     O1053   1.936       .  S
Al1043     O1048   1.792       .  S
O1044      C1051   1.261       .  A
O1044     Al1052   1.915       .  S
O1045      C1054   1.262       .  A
O1045     Al1052   1.923       .  S
O1046     Al1052   1.905       .  S
O1047      C1054   1.258       .  A
O1048     Al1052   1.789       .  S
O1049      C1050   1.259       .  A
C1050      C1084   1.437       .  S
C1051      C1152   1.438       .  S
C1054      C1101   1.435       .  S
C1055      O1056   1.264       .  A
C1055      C1380   1.439       .  S
C1057      C1058   1.205       .  T
C1058      C1059   1.412       .  S
C1059      C1060   1.205       .  T
C1061      C1062   1.207       .  T
C1062      C1063   1.415       .  S
C1063      C1064   1.207       .  T
C1065      C1066   1.207       .  T
C1066      C1067   1.415       .  S
C1067      C1068   1.207       .  T
C1069      C1070   1.205       .  T
C1070      C1071   1.411       .  S
C1071      C1072   1.205       .  T
C1073      C1074   1.208       .  T
C1074      C1075   1.415       .  S
C1075      C1076   1.208       .  T
C1077      C1078   1.205       .  T
C1078      C1079   1.412       .  S
C1079      C1080   1.205       .  T
C1081      C1082   1.207       .  T
C1082      C1083   1.415       .  S
C1083      C1084   1.207       .  T
C1085      C1086   1.205       .  T
C1086      C1087   1.411       .  S
C1087      C1088   1.205       .  T
C1089      C1090   1.208       .  T
C1090      C1091   1.415       .  S
C1091      C1092   1.208       .  T
C1093      C1094   1.205       .  T
C1094      C1095   1.411       .  S
C1095      C1096   1.205       .  T
C1097      C1098   1.207       .  T
C1098      C1099   1.415       .  S
C1099      C1100   1.207       .  T
C1101      C1102   1.205       .  T
C1102      C1103   1.412       .  S
C1103      C1104   1.205       .  T
C1105      C1106   1.208       .  T
C1106      C1107   1.416   1_565  S
C1107      C1108   1.208       .  T
C1109      C1110   1.205       .  T
C1110      C1111   1.411       .  S
C1111      C1112   1.205       .  T
C1113      C1114   1.208       .  T
C1114      C1115   1.416   1_545  S
C1115      C1116   1.208       .  T
C1117      C1118   1.205       .  T
C1118      C1119   1.412       .  S
C1119      C1120   1.205       .  T
C1121      C1122   1.205       .  T
C1122      C1123   1.412       .  S
C1123      C1124   1.205       .  T
C1125      C1126   1.207       .  T
C1126      C1127   1.415       .  S
C1127      C1128   1.207       .  T
C1129      C1130   1.207       .  T
C1130      C1131   1.415       .  S
C1131      C1132   1.207       .  T
C1133      C1134   1.208       .  T
C1134      C1135   1.415       .  S
C1135      C1136   1.208       .  T
C1137      C1138   1.207       .  T
C1138      C1139   1.415       .  S
C1139      C1140   1.207       .  T
C1141      C1142   1.208       .  T
C1142      C1143   1.415       .  S
C1143      C1144   1.208       .  T
C1145      C1146   1.205       .  T
C1146      C1147   1.411       .  S
C1147      C1148   1.205       .  T
C1149      C1150   1.208       .  T
C1150      C1151   1.415       .  S
C1151      C1152   1.208       .  T
C1153      C1154   1.207       .  T
C1154      C1155   1.415       .  S
C1155      C1156   1.207       .  T
C1157      C1158   1.208       .  T
C1158      C1159   1.415       .  S
C1159      C1160   1.208       .  T
C1161      C1162   1.205       .  T
C1162      C1163   1.411       .  S
C1163      C1164   1.205       .  T
C1165      C1166   1.205       .  T
C1166      C1167   1.412       .  S
C1167      C1168   1.206       .  T
C1169      C1170   1.208       .  T
C1170      C1171   1.415       .  S
C1171      C1172   1.208       .  T
C1173      C1174   1.206       .  T
C1174      C1175   1.412       .  S
C1175      C1176   1.205       .  T
C1177      C1178   1.208       .  T
C1178      C1179   1.415       .  S
C1179      C1180   1.208       .  T
C1181      C1182   1.205       .  T
C1182      C1183   1.411       .  S
C1183      C1184   1.205       .  T
C1185      C1186   1.205       .  T
C1186      C1187   1.412       .  S
C1187      C1188   1.205       .  T
C1189      C1190   1.207       .  T
C1190      C1191   1.415       .  S
C1191      C1192   1.207       .  T
C1193      C1194   1.207       .  T
C1194      C1195   1.415       .  S
C1195      C1196   1.207       .  T
C1197      C1198   1.208       .  T
C1198      C1199   1.415   1_655  S
C1199      C1200   1.208       .  T
C1201      C1202   1.205       .  T
C1202      C1203   1.412       .  S
C1203      C1204   1.205       .  T
C1205      C1206   1.207       .  T
C1206      C1207   1.414       .  S
C1207      C1208   1.207       .  T
C1209      C1210   1.207       .  T
C1210      C1211   1.415       .  S
C1211      C1212   1.207       .  T
C1213      C1214   1.208       .  T
C1214      C1215   1.415   1_655  S
C1215      C1216   1.208       .  T
C1217      C1218   1.205       .  T
C1218      C1219   1.411       .  S
C1219      C1220   1.205       .  T
C1221      C1222   1.205       .  T
C1222      C1223   1.412       .  S
C1223      C1224   1.205       .  T
C1225      C1226   1.207       .  T
C1226      C1227   1.414       .  S
C1227      C1228   1.207       .  T
C1229      C1230   1.207       .  T
C1230      C1231   1.415       .  S
C1231      C1232   1.207       .  T
C1233      C1234   1.208       .  T
C1234      C1235   1.415       .  S
C1235      C1236   1.208       .  T
C1237      C1238   1.208       .  T
C1238      C1239   1.415       .  S
C1239      C1240   1.207       .  T
C1241      C1242   1.208       .  T
C1242      C1243   1.416       .  S
C1243      C1244   1.208       .  T
C1245      C1246   1.205       .  T
C1246      C1247   1.411       .  S
C1247      C1248   1.205       .  T
C1249      C1250   1.208       .  T
C1250      C1251   1.415   1_565  S
C1251      C1252   1.208       .  T
C1253      C1254   1.207       .  T
C1254      C1255   1.415       .  S
C1255      C1256   1.207       .  T
C1257      C1258   1.207       .  T
C1258      C1259   1.415       .  S
C1259      C1260   1.208       .  T
C1261      C1262   1.208       .  T
C1262      C1263   1.416   1_655  S
C1263      C1264   1.208       .  T
C1265      C1266   1.207       .  T
C1266      C1267   1.415   1_565  S
C1267      C1268   1.207       .  T
C1269      C1270   1.205       .  T
C1270      C1271   1.411       .  S
C1271      C1272   1.205       .  T
C1273      C1274   1.208       .  T
C1274      C1275   1.415       .  S
C1275      C1276   1.208       .  T
C1277      C1278   1.208       .  T
C1278      C1279   1.415       .  S
C1279      C1280   1.208       .  T
C1281      C1282   1.205       .  T
C1282      C1283   1.412       .  S
C1283      C1284   1.205       .  T
C1285      C1286   1.207       .  T
C1286      C1287   1.415       .  S
C1287      C1288   1.207       .  T
C1289      C1290   1.205       .  T
C1290      C1291   1.411       .  S
C1291      C1292   1.205       .  T
C1293      C1294   1.208       .  T
C1294      C1295   1.415   1_655  S
C1295      C1296   1.208       .  T
C1297      C1298   1.205       .  T
C1298      C1299   1.412       .  S
C1299      C1300   1.205       .  T
C1301      C1302   1.205       .  T
C1302      C1303   1.411       .  S
C1303      C1304   1.205       .  T
C1305      C1306   1.207       .  T
C1306      C1307   1.415       .  S
C1307      C1308   1.208       .  T
C1309      C1310   1.207       .  T
C1310      C1311   1.415       .  S
C1311      C1312   1.207       .  T
C1313      C1314   1.208       .  T
C1314      C1315   1.415       .  S
C1315      C1316   1.208       .  T
C1317      C1318   1.205       .  T
C1318      C1319   1.411       .  S
C1319      C1320   1.205       .  T
C1321      C1322   1.208       .  T
C1322      C1323   1.416       .  S
C1323      C1324   1.208       .  T
C1325      C1326   1.205       .  T
C1326      C1327   1.412       .  S
C1327      C1328   1.205       .  T
C1329      C1330   1.205       .  T
C1330      C1331   1.412       .  S
C1331      C1332   1.205       .  T
C1333      C1334   1.208       .  T
C1334      C1335   1.415   1_556  S
C1335      C1336   1.208       .  T
C1337      C1338   1.207       .  T
C1338      C1339   1.415       .  S
C1339      C1340   1.207       .  T
C1341      C1342   1.208       .  T
C1342      C1343   1.415       .  S
C1343      C1344   1.208       .  T
C1345      C1346   1.207       .  T
C1346      C1347   1.415   1_554  S
C1347      C1348   1.208       .  T
C1349      C1350   1.207       .  T
C1350      C1351   1.415       .  S
C1351      C1352   1.207       .  T
C1353      C1354   1.207       .  T
C1354      C1355   1.415       .  S
C1355      C1356   1.207       .  T
C1357      C1358   1.205       .  T
C1358      C1359   1.412       .  S
C1359      C1360   1.205       .  T
C1361      C1362   1.207       .  T
C1362      C1363   1.415       .  S
C1363      C1364   1.207       .  T
C1365      C1366   1.205       .  T
C1366      C1367   1.412       .  S
C1367      C1368   1.205       .  T
C1369      C1370   1.207       .  T
C1370      C1371   1.415       .  S
C1371      C1372   1.207       .  T
C1373      C1374   1.205       .  T
C1374      C1375   1.411       .  S
C1375      C1376   1.205       .  T
C1377      C1378   1.208       .  T
C1378      C1379   1.415       .  S
C1379      C1380   1.208       .  T
C1381      C1382   1.208       .  T
C1382      C1383   1.416       .  S
C1383      C1384   1.208       .  T
C1385      C1386   1.208       .  T
C1386      C1387   1.416       .  S
C1387      C1388   1.208       .  T
C1389      C1390   1.206       .  T
C1390      C1391   1.412       .  S
C1391      C1392   1.205       .  T
C1393      C1394   1.208       .  T
C1394      C1395   1.415       .  S
C1395      C1396   1.208       .  T
C1397      C1398   1.205       .  T
C1398      C1399   1.411       .  S
C1399      C1400   1.205       .  T
C1401      C1402   1.205       .  T
C1402      C1403   1.411       .  S
C1403      C1404   1.205       .  T
C1405      C1406   1.208       .  T
C1406      C1407   1.415   1_655  S
C1407      C1408   1.208       .  T
C1409      C1410   1.207       .  T
C1410      C1411   1.415       .  S
C1411      C1412   1.207       .  T
C1413      C1414   1.207       .  T
C1414      C1415   1.415       .  S
C1415      C1416   1.207       .  T
C1417      C1418   1.208       .  T
C1418      C1419   1.416   1_556  S
C1419      C1420   1.208       .  T
C1421      C1422   1.208       .  T
C1422      C1423   1.416   1_455  S
C1423      C1424   1.208       .  T
C1425      C1426   1.208       .  T
C1426      C1427   1.415       .  S
C1427      C1428   1.208       .  T
C1429      C1430   1.208       .  T
C1430      C1431   1.415       .  S
C1431      C1432   1.208       .  T
C1433      C1434   1.205       .  T
C1434      C1435   1.412       .  S
C1435      C1436   1.205       .  T
C1437      C1438   1.208       .  T
C1438      C1439   1.415   1_556  S
C1439      C1440   1.208       .  T
C1441      C1442   1.205       .  T
C1442      C1443   1.411       .  S
C1443      C1444   1.205       .  T
C1445      C1446   1.205       .  T
C1446      C1447   1.411       .  S
C1447      C1448   1.205       .  T
C1449      C1450   1.207       .  T
C1450      C1451   1.415       .  S
C1451      C1452   1.207       .  T
C1453      C1454   1.208       .  T
C1454      C1455   1.416       .  S
C1455      C1456   1.208       .  T
C1457      C1458   1.208       .  T
C1458      C1459   1.416       .  S
C1459      C1460   1.208       .  T
C1461      C1462   1.208       .  T
C1462      C1463   1.416       .  S
C1463      C1464   1.208       .  T
C1465      C1466   1.208       .  T
C1466      C1467   1.415       .  S
C1467      C1468   1.208       .  T
C1469      C1470   1.205       .  T
C1470      C1471   1.411       .  S
C1471      C1472   1.205       .  T
C1473      C1474   1.208       .  T
C1474      C1475   1.415       .  S
C1475      C1476   1.208       .  T
C1477      C1478   1.205       .  T
C1478      C1479   1.411       .  S
C1479      C1480   1.205       .  T
C1481      C1482   1.205       .  T
C1482      C1483   1.411       .  S
C1483      C1484   1.205       .  T
C1485      C1486   1.208       .  T
C1486      C1487   1.416   1_556  S
C1487      C1488   1.208       .  T
C1489      C1490   1.207       .  T
C1490      C1491   1.415       .  S
C1491      C1492   1.207       .  T
C1493      C1494   1.207       .  T
C1494      C1495   1.415       .  S
C1495      C1496   1.207       .  T
C1497      C1498   1.208       .  T
C1498      C1499   1.415   1_554  S
C1499      C1500   1.208       .  T
C1501      C1502   1.208       .  T
C1502      C1503   1.415   1_565  S
C1503      C1504   1.208       .  T
C1505      C1506   1.205       .  T
C1506      C1507   1.411       .  S
C1507      C1508   1.205       .  T
C1509      C1510   1.207       .  T
C1510      C1511   1.415       .  S
C1511      C1512   1.208       .  T
C1513      C1514   1.207       .  T
C1514      C1515   1.415       .  S
C1515      C1516   1.207       .  T
C1517      C1518   1.208       .  T
C1518      C1519   1.415   1_545  S
C1519      C1520   1.208       .  T
C1521      C1522   1.207       .  T
C1522      C1523   1.415       .  S
C1523      C1524   1.207       .  T
C1525      C1526   1.207       .  T
C1526      C1527   1.415       .  S
C1527      C1528   1.207       .  T
C1529      C1530   1.206       .  T
C1530      C1531   1.412       .  S
C1531      C1532   1.205       .  T
C1533      C1534   1.205       .  T
C1534      C1535   1.411       .  S
C1535      C1536   1.205       .  T
C1537      C1538   1.208       .  T
C1538      C1539   1.415       .  S
C1539      C1540   1.208       .  T
C1541      C1542   1.208       .  T
C1542      C1543   1.416       .  S
C1543      C1544   1.208       .  T
C1545      C1546   1.208       .  T
C1546      C1547   1.416       .  S
C1547      C1548   1.208       .  T
C1549      C1550   1.208       .  T
C1550      C1551   1.416       .  S
C1551      C1552   1.208       .  T
C1553      C1554   1.205       .  T
C1554      C1555   1.412       .  S
C1555      C1556   1.206       .  T
C1557      C1558   1.208       .  T
C1558      C1559   1.416       .  S
C1559      C1560   1.208       .  T
C1561      C1562   1.208       .  T
C1562      C1563   1.416       .  S
C1563      C1564   1.208       .  T
C1565      C1566   1.205       .  T
C1566      C1567   1.411       .  S
C1567      C1568   1.205       .  T
C1569      C1570   1.205       .  T
C1570      C1571   1.412       .  S
C1571      C1572   1.206       .  T
C1573      C1574   1.208       .  T
C1574      C1575   1.415   1_455  S
C1575      C1576   1.207       .  T
C1577      C1578   1.208       .  T
C1578      C1579   1.416   1_545  S
C1579      C1580   1.208       .  T
C1581      C1582   1.207       .  T
C1582      C1583   1.414       .  S
C1583      C1584   1.207       .  T
C1585      C1586   1.207       .  T
C1586      C1587   1.415       .  S
C1587      C1588   1.207       .  T
C1589      C1590   1.208       .  T
C1590      C1591   1.416   1_554  S
C1591      C1592   1.208       .  T
C1593      C1594   1.208       .  T
C1594      C1595   1.416   1_545  S
C1595      C1596   1.208       .  T
C1597      C1598   1.208       .  T
C1598      C1599   1.416       .  S
C1599      C1600   1.208       .  T
C1601      C1602   1.207       .  T
C1602      C1603   1.415       .  S
C1603      C1604   1.207       .  T
C1605      C1606   1.205       .  T
C1606      C1607   1.411       .  S
C1607      C1608   1.205       .  T
C1609      C1610   1.208       .  T
C1610      C1611   1.415   1_556  S
C1611      C1612   1.208       .  T
C1613      C1614   1.207       .  T
C1614      C1615   1.415   1_455  S
C1615      C1616   1.208       .  T
C1617      C1618   1.205       .  T
C1618      C1619   1.411       .  S
C1619      C1620   1.205       .  T
C1621      C1622   1.205       .  T
C1622      C1623   1.411       .  S
C1623      C1624   1.205       .  T
C1625      C1626   1.207       .  T
C1626      C1627   1.415       .  S
C1627      C1628   1.207       .  T
C1629      C1630   1.207       .  T
C1630      C1631   1.415       .  S
C1631      C1632   1.207       .  T
