geometry optimzed in LAMMPS
_audit_creation_date              2020-11-30 
_audit_creation_method            'lammps2cif' 
_symmetry_space_group_name_H-M    'P1' 
_symmetry_Int_Tables_number       1 
_symmetry_cell_setting            triclinic 
loop_ 
_symmetry_equiv_pos_as_xyz 
  x,y,z 
_cell_length_a                    34.78484146070237 
_cell_length_b                    40.861618210495195 
_cell_length_c                    46.47831777981615 
_cell_angle_alpha                 89.81130187651765 
_cell_angle_beta                  90.43999379501683 
_cell_angle_gamma                 89.87164181256493 
loop_ 
_atom_site_label 
_atom_site_type_symbol 
_atom_site_fract_x 
_atom_site_fract_y 
_atom_site_fract_z 
_atom_site_charge 
In1        In  0.98210229  0.07910491  0.20529267     1.36870
C2          C  0.90612010  0.08140478  0.21047366     0.76940
O3          O  0.98175246  0.10302074  0.16222540    -0.61510
O4          O  0.99260986  0.05173218  0.16401804    -0.52420
C5          C  0.03482076  0.12395466  0.21647537     0.69600
O6          O  0.99922117  0.13021715  0.21586746    -0.47280
C7          C  0.99413429  0.03497577  0.24634155     0.74310
O8          O  0.92783786  0.10283406  0.22134673    -0.59140
O9          O  0.99753933  0.02814760  0.21998933    -0.49230
O10         O  0.92328420  0.05984611  0.19621931    -0.55570
C11         C  0.98797495  0.07698632  0.14860460     0.84490
O12         O  0.04352841  0.09458046  0.21092258    -0.57460
O13         O  0.98752731  0.06463609  0.25161664    -0.60760
In14       In  0.97884225  0.46676326  0.31009360     1.36870
C15         C  0.90242786  0.46652411  0.30818189     0.76940
O16         O  0.97684869  0.44263481  0.35307272    -0.61510
O17         O  0.98970694  0.49360761  0.35155278    -0.52420
C18         C  0.03106593  0.42176683  0.29882503     0.69600
O19         O  0.99651998  0.41930329  0.29048211    -0.47280
C20         C  0.99334602  0.51005302  0.26898983     0.74310
O21         O  0.92195403  0.44130059  0.30237515    -0.59140
O22         O  0.99788172  0.01664957  0.29533442    -0.49230
O23         O  0.92219959  0.49137303  0.31396870    -0.55570
C24         C  0.98401046  0.46845831  0.36683258     0.84490
O25         O  0.03902101  0.44737040  0.31281234    -0.57460
O26         O  0.98414847  0.48089535  0.26373971    -0.60760
In27       In  0.69037440  0.02405676  0.25586802     1.36870
C28         C  0.74500451  0.49107113  0.28276992     0.76940
O29         O  0.65299694  0.48176057  0.26664377    -0.61510
O30         O  0.65586727  0.49695383  0.22267850    -0.52420
C31         C  0.64060039  0.07087896  0.26891983     0.69600
O32         O  0.65893665  0.05494826  0.28806707    -0.47280
C33         C  0.74670288  0.05714202  0.23172052     0.74310
O34         O  0.72289066  0.01042985  0.29616185    -0.58980
O35         O  0.72837922  0.03522218  0.21814719    -0.49230
O36         O  0.73638082  0.48675462  0.25665653    -0.55570
C37         C  0.64185044  0.47745314  0.24102480     0.84490
O38         O  0.64770196  0.06207398  0.24352402    -0.57460
O39         O  0.73272593  0.06431526  0.25585125    -0.60760
In40       In  0.47915530  0.21718069  0.31068150     1.36870
C41         C  0.40271618  0.21714712  0.31080652     0.76940
O42         O  0.47675844  0.19320322  0.35358314    -0.61510
O43         O  0.49347969  0.24336629  0.35198446    -0.52420
C44         C  0.53022503  0.17144133  0.29828275     0.69600
O45         O  0.49568401  0.17011757  0.28972423    -0.47280
C46         C  0.49209284  0.26067666  0.26933569     0.74310
O47         O  0.42189466  0.19176582  0.30490153    -0.59140
O48         O  0.49714532  0.26732802  0.29562635    -0.49230
O49         O  0.42281698  0.24210757  0.31549356    -0.55570
C50         C  0.48631897  0.21849573  0.36729125     0.84490
O51         O  0.53882964  0.19647637  0.31285583    -0.57460
O52         O  0.48317661  0.23141513  0.26424736    -0.60760
In53       In  0.48041313  0.32964204  0.20529392     1.36870
C54         C  0.40418920  0.33301181  0.20921008     0.76940
O55         O  0.47994642  0.35301758  0.16199978    -0.61510
O56         O  0.49245921  0.30205134  0.16427490    -0.52420
C57         C  0.53312674  0.37469070  0.21621971     0.69600
O58         O  0.49748089  0.38073852  0.21615793    -0.47280
C59         C  0.49232561  0.28553761  0.24656664     0.74310
O60         O  0.42599207  0.35415149  0.22043818    -0.59140
O61         O  0.49501200  0.27855824  0.22020766    -0.49230
O62         O  0.42152799  0.31068799  0.19601355    -0.55570
C63         C  0.48738975  0.32705602  0.14862174     0.84490
O64         O  0.54185434  0.34539492  0.21041553    -0.57460
O65         O  0.48618203  0.31529428  0.25175312    -0.60760
In66       In  0.19047703  0.27288585  0.26064572     1.36870
C67         C  0.24729127  0.30636712  0.23734512     0.76940
O68         O  0.14765552  0.31136061  0.24926573    -0.61510
O69         O  0.15755657  0.30130195  0.29357854    -0.52420
C70         C  0.14283100  0.22633203  0.24403911     0.69600
O71         O  0.15686068  0.24663803  0.22638753    -0.47280
C72         C  0.24468506  0.24029931  0.28833331     0.74310
O73         O  0.22915051  0.28466874  0.22334121    -0.59140
O74         O  0.22275676  0.26018212  0.30125173    -0.49230
O75         O  0.23259518  0.31336247  0.26120071    -0.55570
C76         C  0.13934202  0.31806210  0.27499999     0.84490
O77         O  0.15362480  0.22978344  0.26983737    -0.57460
O78         O  0.23596897  0.23513065  0.26236131    -0.60760
In79       In  0.99276412  0.46816309  0.45480314     1.36870
C80         C  0.06906548  0.47282411  0.45647672     0.76940
O81         O  0.99646001  0.44365176  0.41226007    -0.61510
O82         O  0.97757661  0.49339703  0.41319811    -0.52420
C83         C  0.94283100  0.42172737  0.46702977     0.69600
O84         O  0.97838172  0.41893168  0.47251559    -0.47280
C85         C  0.97899079  0.01078328  0.49633569     0.74310
O86         O  0.05184817  0.44751776  0.46536369    -0.59140
O87         O  0.97357732  0.01780197  0.47011581    -0.49230
O88         O  0.04699409  0.49448418  0.44655126    -0.55570
C89         C  0.98602492  0.46864715  0.39822360     0.84490
O90         O  0.93294078  0.44822701  0.45491341    -0.57460
O91         O  0.98827961  0.48151094  0.50124744    -0.60760
In92       In  0.99485585  0.07795701  0.06054416     1.36870
C93         C  0.07126926  0.07544520  0.05780889     0.76940
O94         O  0.99952980  0.10186354  0.10330745    -0.61510
O95         O  0.98132733  0.05207239  0.10211118    -0.52420
C96         C  0.94487788  0.12556369  0.05075913     0.69600
O97         O  0.98040881  0.12846937  0.04576227    -0.47280
C98         C  0.97943284  0.03532342  0.01916497     0.74310
O99         O  0.05222093  0.09925926  0.04771869    -0.59140
O100        O  0.97632060  0.02808923  0.04547970    -0.49230
O101        O  0.05086199  0.05351923  0.06897101    -0.55570
C102        C  0.98972742  0.07676026  0.11722479     0.84490
O103        O  0.93485413  0.09781464  0.06018423    -0.57460
O104        O  0.98731165  0.06481210  0.01410724    -0.60760
In105      In  0.28576849  0.02133477  0.00480809     1.36870
C106        C  0.22992234  0.04807240  0.03481496     0.76940
O107        O  0.32607212  0.06104718  0.01783028    -0.61510
O108        O  0.31769084  0.05228526  0.47308161    -0.52420
C109        C  0.33609978  0.47505036  0.01819932     0.69600
O110        O  0.31791124  0.49087687  0.03707022    -0.47280
C111        C  0.23037937  0.49329373  0.47488351     0.74310
O112        O  0.25099655  0.02551636  0.04492765    -0.59140
O113        O  0.24991768  0.01669396  0.46477776    -0.49230
O114        O  0.24122430  0.05983354  0.01125967    -0.55570
C115        C  0.33492701  0.06851596  0.49235673     0.84490
O116        O  0.32777337  0.48254450  0.49251200    -0.57460
O117        O  0.24301714  0.48156835  0.99820350    -0.60760
In118      In  0.49577204  0.21607711  0.45537026     1.36870
C119        C  0.57184473  0.21142219  0.45974940     0.76940
O120        O  0.49606539  0.19227178  0.41239294    -0.61510
O121        O  0.48439773  0.24345704  0.41396366    -0.52420
C122        C  0.44336810  0.17086062  0.46562281     0.69600
O123        O  0.47887770  0.16637544  0.47001014    -0.47280
C124        C  0.48408419  0.26039046  0.49621584     0.74310
O125        O  0.54968327  0.19060833  0.47085506    -0.59140
O126        O  0.48229705  0.26751407  0.46979865    -0.49230
O127        O  0.55500909  0.23402699  0.44624053    -0.55570
C128        C  0.48907030  0.21826813  0.39866208     0.84490
O129        O  0.43443219  0.19897128  0.45619431    -0.57460
O130        O  0.48894386  0.23049944  0.50157119    -0.60760
In131      In  0.49726696  0.32820982  0.06057416     1.36870
C132        C  0.57369730  0.33027345  0.05986516     0.76940
O133        O  0.49738990  0.35245189  0.10334261    -0.61510
O134        O  0.48529029  0.30141405  0.10213697    -0.52420
C135        C  0.44522146  0.37343342  0.04814194     0.69600
O136        O  0.48065594  0.37713057  0.04326614    -0.47280
C137        C  0.48466057  0.28505720  0.01898900     0.74310
O138        O  0.55323742  0.35424638  0.05186137    -0.59140
O139        O  0.47967150  0.27816605  0.04521214    -0.49230
O140        O  0.55485575  0.30553618  0.06747559    -0.55570
C141        C  0.49013760  0.32674316  0.11725865     0.84490
O142        O  0.43630562  0.34606620  0.05895225    -0.57460
O143        O  0.49371074  0.31432873  0.01404343    -0.60760
In144      In  0.78517566  0.27367001  0.01027847     1.36870
C145        C  0.72853405  0.23873552  0.48843765     0.76940
O146        O  0.82803710  0.23570960  0.49862535    -0.61510
O147        O  0.81783058  0.24450500  0.04321482    -0.52420
C148        C  0.83391381  0.31949629  0.49376664     0.69600
O149        O  0.81497327  0.30248622  0.47591103    -0.47280
C150        C  0.73129959  0.30809639  0.03595791     0.74310
O151        O  0.74688441  0.25918298  0.47323673    -0.59140
O152        O  0.75352197  0.28917627  0.05003378    -0.49230
O153        O  0.74306939  0.23347876  0.01290841    -0.55570
C154        C  0.83645690  0.22877146  0.02443930     0.84490
O155        O  0.82734007  0.31287712  0.01984792    -0.57460
O156        O  0.73973134  0.31152125  0.00980496    -0.60760
C157        C  0.61620816  0.33032933  0.05916427    -0.06770
C158        C  0.63465855  0.35001859  0.03875707    -0.17900
C159        C  0.67388108  0.34620262  0.03314960     0.10430
C160        C  0.69514430  0.32153584  0.04772044    -0.06690
C161        C  0.67760711  0.30442689  0.07029262    -0.17930
C162        C  0.63862908  0.30883596  0.07639685     0.10460
S163        S  0.69460614  0.37274658  0.50639755    -0.32890
S164        S  0.61918370  0.28568935  0.10598723    -0.32900
H165        H  0.59357754  0.31042708  0.11466673     0.28470
H166        H  0.73134558  0.37331317  0.51929307     0.28460
H167        H  0.61811860  0.36741462  0.02607725     0.19060
H168        H  0.69363984  0.28596671  0.08213302     0.19060
C169        C  0.61386747  0.21107966  0.46403619    -0.06770
C170        C  0.62800688  0.20228042  0.49122534    -0.17900
C171        C  0.66575141  0.20946967  0.49943271     0.10430
C172        C  0.69087873  0.22481483  0.47955371    -0.06690
C173        C  0.67743669  0.23084701  0.45143207    -0.17930
C174        C  0.63937342  0.22408419  0.44347389     0.10460
S175        S  0.67800763  0.20156419  0.03654992    -0.32890
S176        S  0.62489663  0.23308446  0.40694325    -0.32900
H177        H  0.59720586  0.20808977  0.40518909     0.28470
H178        H  0.68191465  0.23506029  0.04295523     0.28460
H179        H  0.60856659  0.19233821  0.00713397     0.19060
H180        H  0.69622747  0.24209007  0.43578040     0.19060
C181        C  0.36317109  0.09429556  0.48559029    -0.06770
C182        C  0.35677454  0.11421513  0.46133024    -0.17900
C183        C  0.38227542  0.13940061  0.45414935     0.10430
C184        C  0.41495353  0.14502611  0.47169565    -0.06690
C185        C  0.42142990  0.12496515  0.49578704    -0.17930
C186        C  0.39617441  0.09972200  0.50287346     0.10460
S187        S  0.37223395  0.16252079  0.42184067    -0.32890
S188        S  0.40867679  0.07486910  0.03371051    -0.32900
H189        H  0.39671982  0.04516855  0.02151319     0.28470
H190        H  0.41076800  0.16416592  0.41297276     0.28460
H191        H  0.33167316  0.11014737  0.44784428     0.19060
H192        H  0.44657282  0.12893897  0.00925874     0.19060
C193        C  0.36462452  0.44956164  0.02573038    -0.06770
C194        C  0.35768422  0.42952850  0.04972125    -0.17900
C195        C  0.38334864  0.40460622  0.05772475     0.10430
C196        C  0.41678899  0.39926750  0.04124526    -0.06690
C197        C  0.42380737  0.41947852  0.01740612    -0.17930
C198        C  0.39837672  0.44453726  0.00955436     0.10460
S199        S  0.37238191  0.38146374  0.08970926    -0.32890
S200        S  0.41157793  0.46969551  0.47925924    -0.32900
H201        H  0.39829793  0.49916791  0.49105971     0.28470
H202        H  0.41039179  0.38122886  0.10029729     0.28460
H203        H  0.33200099  0.43331345  0.06237674     0.19060
H204        H  0.44948778  0.41577597  0.00473192     0.19060
C205        C  0.91740709  0.15260299  0.04547067    -0.06770
C206        C  0.92471355  0.17411285  0.02257732    -0.17900
C207        C  0.89948346  0.19972253  0.01583347     0.10430
C208        C  0.86557328  0.20382141  0.03199772    -0.06690
C209        C  0.85868616  0.18288896  0.05536747    -0.17930
C210        C  0.88428444  0.15755237  0.06241934     0.10460
S211        S  0.91295798  0.22690717  0.48698662    -0.32890
S212        S  0.87361560  0.13325724  0.09379371    -0.32900
H213        H  0.91194695  0.13160804  0.10361423     0.28470
H214        H  0.89931258  0.25547857  0.50035372     0.28460
H215        H  0.95031828  0.17091555  0.00971549     0.19060
H216        H  0.83299043  0.18612883  0.06812131     0.19060
C217        C  0.11372846  0.07192613  0.05618435    -0.06770
C218        C  0.12978999  0.04191434  0.06508254    -0.17900
C219        C  0.16857932  0.03466404  0.06099894     0.10430
C220        C  0.19248000  0.05767965  0.04714925    -0.06690
C221        C  0.17707013  0.08842360  0.03971271    -0.17930
C222        C  0.13834383  0.09602168  0.04455724     0.10460
S223        S  0.18431115  0.49413746  0.07099055    -0.32890
S224        S  0.12229077  0.13647243  0.03473419    -0.32900
H225        H  0.10227705  0.14132391  0.06058505     0.28470
H226        H  0.21491434  0.50572907  0.08807976     0.28460
H227        H  0.11170199  0.02318655  0.07441090     0.19060
H228        H  0.19508453  0.10638247  0.02920900     0.19060
C229        C  0.91489843  0.39594624  0.47417900    -0.06770
C230        C  0.88752591  0.38680822  0.45341252    -0.17900
C231        C  0.86158104  0.36130261  0.45859236     0.10430
C232        C  0.86203733  0.34508999  0.48556861    -0.06690
C233        C  0.88935527  0.35463362  0.00635421    -0.17930
C234        C  0.91550442  0.37980180  0.00103721     0.10460
S235        S  0.82812573  0.35139626  0.43024192    -0.32890
S236        S  0.94759550  0.39123258  0.02994803    -0.32900
H237        H  0.94604790  0.42503472  0.02419221     0.28470
H238        H  0.84192408  0.31913430  0.42771288     0.28460
H239        H  0.88693098  0.39914041  0.43273188     0.19060
H240        H  0.89011703  0.34267337  0.02719447     0.19060
C241        C  0.11146523  0.47710736  0.45770998    -0.06770
C242        C  0.13469137  0.45060146  0.46640282    -0.17900
C243        C  0.17463616  0.45393763  0.46942236     0.10430
C244        C  0.19212171  0.48436193  0.46343405    -0.06690
C245        C  0.16937162  0.01004174  0.45275319    -0.17930
C246        C  0.12948543  0.00720020  0.45064749     0.10460
S247        S  0.20162618  0.41868674  0.48142984    -0.32890
S248        S  0.10365963  0.04415803  0.44155371    -0.32900
H249        H  0.08190198  0.04357890  0.46698716     0.28470
H250        H  0.23588910  0.42760256  0.46756965     0.28460
H251        H  0.12165220  0.42726590  0.47145538     0.19060
H252        H  0.18224205  0.03372611  0.44872886     0.19060
C253        C  0.36202969  0.33283876  0.21287984    -0.06770
C254        C  0.34720399  0.34436908  0.23885420    -0.17900
C255        C  0.30934039  0.33776354  0.24683259     0.10430
C256        C  0.28487745  0.31983716  0.22801521    -0.06690
C257        C  0.29894992  0.31092073  0.20087867    -0.17930
C258        C  0.33699052  0.31740144  0.19306087     0.10460
S259        S  0.29583941  0.35034173  0.28246929    -0.32890
S260        S  0.35189508  0.30503936  0.15763023    -0.32900
H261        H  0.37787347  0.33103669  0.15383500     0.28470
H262        H  0.29319658  0.31787467  0.29249954     0.28460
H263        H  0.36610659  0.35639568  0.25414622     0.19060
H264        H  0.28063259  0.29776387  0.18594276     0.19060
C265        C  0.36019757  0.21825952  0.31116761    -0.06770
C266        C  0.33955195  0.19609318  0.29406544    -0.17900
C267        C  0.30008835  0.20021412  0.28911676     0.10430
C268        C  0.28087291  0.22754357  0.30092553    -0.06690
C269        C  0.30059076  0.24746530  0.32057521    -0.17930
C270        C  0.33980515  0.24290542  0.32609049     0.10460
S271        S  0.27619969  0.17047230  0.26672001    -0.32890
S272        S  0.36213135  0.26997617  0.35180069    -0.32900
H273        H  0.38691680  0.24591674  0.36332762     0.28470
H274        H  0.24000720  0.17422267  0.27966212     0.28460
H275        H  0.35449048  0.17635925  0.28334323     0.19060
H276        H  0.28607115  0.26809401  0.33029789     0.19060
C277        C  0.61294857  0.09755792  0.27581034    -0.06770
C278        C  0.60711241  0.10569153  0.30486232    -0.17900
C279        C  0.58028897  0.12956745  0.31285010     0.10430
C280        C  0.55839346  0.14574674  0.29143097    -0.06690
C281        C  0.56398809  0.13781624  0.26251598    -0.17930
C282        C  0.59150088  0.11467983  0.25439091     0.10460
S283        S  0.57440632  0.13746154  0.35073435    -0.32890
S284        S  0.59809119  0.10916165  0.21630729    -0.32900
H285        H  0.63779739  0.11564995  0.21774663     0.28470
H286        H  0.53467747  0.14370939  0.34923739     0.28460
H287        H  0.62321922  0.09311404  0.32161456     0.19060
H288        H  0.54760261  0.15059063  0.24600479     0.19060
C289        C  0.61440487  0.45145248  0.23350436    -0.06770
C290        C  0.62225494  0.41949696  0.24296429    -0.17900
C291        C  0.59650096  0.39392196  0.23761634     0.10430
C292        C  0.56198708  0.40030730  0.22229836    -0.06690
C293        C  0.55430539  0.43234023  0.21275952    -0.17930
C294        C  0.57997314  0.45792843  0.21827800     0.10460
S295        S  0.60858841  0.35423704  0.25214342    -0.32890
S296        S  0.56633860  0.49843300  0.20644913    -0.32900
H297        H  0.58186022  0.01492795  0.23036214     0.28470
H298        H  0.57116139  0.34726721  0.26162576     0.28460
H299        H  0.64851498  0.41450349  0.25494384     0.19060
H300        H  0.52787615  0.43756933  0.20109048     0.19060
C301        C  0.05987742  0.39646826  0.29275723    -0.06770
C302        C  0.07277746  0.37644002  0.31536000    -0.17900
C303        C  0.09760070  0.35004972  0.31034021     0.10430
C304        C  0.11114285  0.34417073  0.28211448    -0.06690
C305        C  0.09816390  0.36466898  0.25962040    -0.17930
C306        C  0.07289018  0.39063644  0.26463918     0.10460
S307        S  0.10916386  0.32421529  0.34065690    -0.32890
S308        S  0.05874505  0.41576886  0.23435506    -0.32900
H309        H  0.05470838  0.44501162  0.24991520     0.28470
H310        H  0.10008400  0.29510975  0.32600329     0.28460
H311        H  0.06225585  0.38065342  0.33693876     0.19060
H312        H  0.10814392  0.36080476  0.23786049     0.19060
C313        C  0.85992978  0.46768653  0.30725419    -0.06770
C314        C  0.84026225  0.44693949  0.28824886    -0.17900
C315        C  0.80107466  0.45146847  0.28235088     0.10430
C316        C  0.78112925  0.47783639  0.29518916    -0.06690
C317        C  0.79986973  0.99632871  0.31641003    -0.17930
C318        C  0.83877444  0.49129496  0.32283130     0.10460
S319        S  0.77859072  0.42345708  0.25753712    -0.32890
S320        S  0.85977751  0.01640028  0.35063582    -0.32900
H321        H  0.88438003  0.99170208  0.36128300     0.28470
H322        H  0.74202673  0.42531333  0.27020888     0.28460
H323        H  0.85582310  0.42805110  0.27686690     0.19060
H324        H  0.78483903  0.01620266  0.32687067     0.19060
C325        C  0.06366668  0.14939493  0.22302641    -0.06770
C326        C  0.05700343  0.18128073  0.21274333    -0.17900
C327        C  0.08250568  0.20678853  0.21893716     0.10430
C328        C  0.11576295  0.20036555  0.23560789    -0.06690
C329        C  0.12262765  0.16850149  0.24574069    -0.17930
C330        C  0.09700100  0.14302647  0.23974048     0.10460
S331        S  0.06997071  0.24717593  0.20619626    -0.32890
S332        S  0.10754678  0.10353494  0.25531779    -0.32900
H333        H  0.06939077  0.09698363  0.26331041     0.28470
H334        H  0.08297511  0.26370204  0.23091424     0.28460
H335        H  0.03142768  0.18647655  0.20003421     0.19060
H336        H  0.14794951  0.16351647  0.25881191     0.19060
C337        C  0.86410745  0.08047491  0.21451807    -0.06770
C338        C  0.84095597  0.06795160  0.19224734    -0.17900
C339        C  0.80143725  0.06310547  0.19592463     0.10430
C340        C  0.78453434  0.07028647  0.22275015    -0.06690
C341        C  0.80736975  0.08504158  0.24421731    -0.17930
C342        C  0.84683675  0.08950537  0.24067368     0.10460
S343        S  0.77460948  0.04725667  0.16576464    -0.32890
S344        S  0.87402083  0.10300868  0.27159975    -0.32900
H345        H  0.90234930  0.07852744  0.26919995     0.28470
H346        H  0.74148259  0.06593153  0.17141019     0.28460
H347        H  0.85388309  0.06141479  0.17190015     0.19060
H348        H  0.79519738  0.09058272  0.26504094     0.19060
In349      In  0.98210229  0.07910491  0.70529267     1.36870
C350        C  0.90612009  0.08140478  0.71047366     0.76940
O351        O  0.98175246  0.10302074  0.66222540    -0.61510
O352        O  0.99260985  0.05173218  0.66401804    -0.52420
C353        C  0.03482076  0.12395466  0.71647537     0.69600
O354        O  0.99922117  0.13021715  0.71586745    -0.47280
C355        C  0.99413428  0.03497577  0.74634155     0.74310
O356        O  0.92783786  0.10283406  0.72134674    -0.59140
O357        O  0.99753933  0.02814760  0.71998932    -0.49230
O358        O  0.92328419  0.05984611  0.69621930    -0.55570
C359        C  0.98797495  0.07698632  0.64860460     0.84490
O360        O  0.04352841  0.09458046  0.71092258    -0.57460
O361        O  0.98752730  0.06463608  0.75161664    -0.60760
In362      In  0.97884224  0.46676327  0.81009359     1.36870
C363        C  0.90242785  0.46652412  0.80818189     0.76940
O364        O  0.97684868  0.44263481  0.85307272    -0.61510
O365        O  0.98970693  0.49360762  0.85155278    -0.52420
C366        C  0.03106592  0.42176683  0.79882502     0.69600
O367        O  0.99651997  0.41930329  0.79048211    -0.47280
C368        C  0.99334601  0.51005303  0.76898983     0.74310
O369        O  0.92195402  0.44130060  0.80237515    -0.59140
O370        O  0.99788172  0.01664956  0.79533442    -0.49230
O371        O  0.92219958  0.49137304  0.81396870    -0.55570
C372        C  0.98401046  0.46845832  0.86683258     0.84490
O373        O  0.03902100  0.44737041  0.81281234    -0.57460
O374        O  0.98414846  0.48089536  0.76373971    -0.60760
In375      In  0.69037439  0.02405676  0.75586801     1.36870
C376        C  0.74500449  0.49107113  0.78276991     0.76940
O377        O  0.65299693  0.48176056  0.76664376    -0.61510
O378        O  0.65586726  0.49695382  0.72267849    -0.52420
C379        C  0.64060037  0.07087895  0.76891982     0.69600
O380        O  0.65893664  0.05494825  0.78806706    -0.47280
C381        C  0.74670288  0.05714203  0.73172051     0.74310
O382        O  0.72289065  0.01042985  0.79616184    -0.58980
O383        O  0.72837922  0.03522218  0.71814718    -0.49230
O384        O  0.73638081  0.48675462  0.75665652    -0.55570
C385        C  0.64185043  0.47745313  0.74102479     0.84490
O386        O  0.64770195  0.06207399  0.74352401    -0.57460
O387        O  0.73272592  0.06431526  0.75585124    -0.60760
In388      In  0.47915531  0.21718070  0.81068151     1.36870
C389        C  0.40271619  0.21714718  0.81080654     0.76940
O390        O  0.47675843  0.19320323  0.85358316    -0.61510
O391        O  0.49347973  0.24336629  0.85198448    -0.52420
C392        C  0.53022502  0.17144133  0.79828276     0.69600
O393        O  0.49568400  0.17011758  0.78972424    -0.47280
C394        C  0.49209286  0.26067666  0.76933570     0.74310
O395        O  0.42189465  0.19176586  0.80490156    -0.59140
O396        O  0.49714534  0.26732802  0.79562635    -0.49230
O397        O  0.42281702  0.24210762  0.81549356    -0.55570
C398        C  0.48631899  0.21849573  0.86729127     0.84490
O399        O  0.53882964  0.19647637  0.81285584    -0.57460
O400        O  0.48317662  0.23141513  0.76424737    -0.60760
In401      In  0.48041313  0.32964202  0.70529392     1.36870
C402        C  0.40418920  0.33301178  0.70921007     0.76940
O403        O  0.47994641  0.35301757  0.66199978    -0.61510
O404        O  0.49245921  0.30205133  0.66427490    -0.52420
C405        C  0.53312673  0.37469069  0.71621970     0.69600
O406        O  0.49748088  0.38073851  0.71615794    -0.47280
C407        C  0.49232561  0.28553760  0.74656665     0.74310
O408        O  0.42599205  0.35415148  0.72043815    -0.59140
O409        O  0.49501201  0.27855823  0.72020767    -0.49230
O410        O  0.42152799  0.31068795  0.69601356    -0.55570
C411        C  0.48738974  0.32705602  0.64862174     0.84490
O412        O  0.54185434  0.34539491  0.71041551    -0.57460
O413        O  0.48618203  0.31529428  0.75175312    -0.60760
In414      In  0.19047702  0.27288586  0.76064573     1.36870
C415        C  0.24729126  0.30636711  0.73734509     0.76940
O416        O  0.14765551  0.31136061  0.74926573    -0.61510
O417        O  0.15755654  0.30130195  0.79357855    -0.52420
C418        C  0.14283099  0.22633203  0.74403912     0.69600
O419        O  0.15686068  0.24663803  0.72638754    -0.47280
C420        C  0.24468506  0.24029936  0.78833335     0.74310
O421        O  0.22915050  0.28466873  0.72334120    -0.59140
O422        O  0.22275676  0.26018219  0.80125174    -0.49230
O423        O  0.23259517  0.31336249  0.76120068    -0.55570
C424        C  0.13934201  0.31806210  0.77499999     0.84490
O425        O  0.15362480  0.22978344  0.76983738    -0.57460
O426        O  0.23596896  0.23513066  0.76236135    -0.60760
In427      In  0.99276413  0.46816309  0.95480313     1.36870
C428        C  0.06906549  0.47282411  0.95647673     0.76940
O429        O  0.99646002  0.44365177  0.91226006    -0.61510
O430        O  0.97757661  0.49339703  0.91319811    -0.52420
C431        C  0.94283101  0.42172737  0.96702977     0.69600
O432        O  0.97838173  0.41893168  0.97251558    -0.47280
C433        C  0.97899079  0.01078328  0.99633569     0.74310
O434        O  0.05184818  0.44751776  0.96536369    -0.59140
O435        O  0.97357733  0.01780198  0.97011581    -0.49230
O436        O  0.04699410  0.49448418  0.94655125    -0.55570
C437        C  0.98602492  0.46864715  0.89822360     0.84490
O438        O  0.93294079  0.44822701  0.95491341    -0.57460
O439        O  0.98827962  0.48151094  0.00124744    -0.60760
In440      In  0.99485585  0.07795701  0.56054415     1.36870
C441        C  0.07126926  0.07544520  0.55780888     0.76940
O442        O  0.99952979  0.10186354  0.60330745    -0.61510
O443        O  0.98132733  0.05207239  0.60211118    -0.52420
C444        C  0.94487787  0.12556369  0.55075913     0.69600
O445        O  0.98040880  0.12846937  0.54576227    -0.47280
C446        C  0.97943283  0.03532341  0.51916497     0.74310
O447        O  0.05222092  0.09925926  0.54771868    -0.59140
O448        O  0.97632060  0.02808922  0.54547970    -0.49230
O449        O  0.05086199  0.05351923  0.56897100    -0.55570
C450        C  0.98972742  0.07676025  0.61722479     0.84490
O451        O  0.93485412  0.09781464  0.56018423    -0.57460
O452        O  0.98731163  0.06481210  0.51410724    -0.60760
In453      In  0.28576848  0.02133477  0.50480807     1.36870
C454        C  0.22992233  0.04807240  0.53481493     0.76940
O455        O  0.32607211  0.06104718  0.51783025    -0.61510
O456        O  0.31769085  0.05228525  0.97308164    -0.52420
C457        C  0.33609978  0.47505037  0.51819931     0.69600
O458        O  0.31791123  0.49087687  0.53707020    -0.47280
C459        C  0.23037937  0.49329374  0.97488353     0.74310
O460        O  0.25099655  0.02551636  0.54492762    -0.59140
O461        O  0.24991768  0.01669396  0.96477779    -0.49230
O462        O  0.24122429  0.05983354  0.51125964    -0.55570
C463        C  0.33492702  0.06851595  0.99235676     0.84490
O464        O  0.32777337  0.48254450  0.99251202    -0.57460
O465        O  0.24301714  0.48156834  0.49820348    -0.60760
In466      In  0.49577205  0.21607710  0.95537028     1.36870
C467        C  0.57184475  0.21142217  0.95974942     0.76940
O468        O  0.49606539  0.19227177  0.91239295    -0.61510
O469        O  0.48439777  0.24345704  0.91396368    -0.52420
C470        C  0.44336811  0.17086061  0.96562283     0.69600
O471        O  0.47887772  0.16637542  0.97001015    -0.47280
C472        C  0.48408421  0.26039045  0.99621585     0.74310
O473        O  0.54968329  0.19060831  0.97085508    -0.59140
O474        O  0.48229706  0.26751406  0.96979866    -0.49230
O475        O  0.55500912  0.23402697  0.94624054    -0.55570
C476        C  0.48907032  0.21826812  0.89866210     0.84490
O477        O  0.43443221  0.19897127  0.95619433    -0.57460
O478        O  0.48894389  0.23049943  0.00157121    -0.60760
In479      In  0.49726696  0.32820982  0.56057415     1.36870
C480        C  0.57369730  0.33027345  0.55986516     0.76940
O481        O  0.49738989  0.35245188  0.60334260    -0.61510
O482        O  0.48529028  0.30141404  0.60213696    -0.52420
C483        C  0.44522146  0.37343343  0.54814194     0.69600
O484        O  0.48065594  0.37713058  0.54326614    -0.47280
C485        C  0.48466056  0.28505720  0.51898899     0.74310
O486        O  0.55323741  0.35424638  0.55186138    -0.59140
O487        O  0.47967148  0.27816605  0.54521213    -0.49230
O488        O  0.55485573  0.30553617  0.56747558    -0.55570
C489        C  0.49013759  0.32674316  0.61725865     0.84490
O490        O  0.43630561  0.34606620  0.55895225    -0.57460
O491        O  0.49371074  0.31432873  0.51404342    -0.60760
In492      In  0.78517565  0.27367000  0.51027846     1.36870
C493        C  0.72853406  0.23873552  0.98843767     0.76940
O494        O  0.82803710  0.23570960  0.99862535    -0.61510
O495        O  0.81783056  0.24450499  0.54321481    -0.52420
C496        C  0.83391382  0.31949629  0.99376664     0.69600
O497        O  0.81497327  0.30248622  0.97591103    -0.47280
C498        C  0.73129958  0.30809638  0.53595791     0.74310
O499        O  0.74688442  0.25918297  0.97323674    -0.59140
O500        O  0.75352196  0.28917625  0.55003377    -0.49230
O501        O  0.74306938  0.23347875  0.51290838    -0.55570
C502        C  0.83645689  0.22877145  0.52443929     0.84490
O503        O  0.82734005  0.31287712  0.51984791    -0.57460
O504        O  0.73973133  0.31152125  0.50980496    -0.60760
C505        C  0.61620815  0.33032932  0.55916427    -0.06770
C506        C  0.63465855  0.35001858  0.53875708    -0.17900
C507        C  0.67388108  0.34620261  0.53314962     0.10430
C508        C  0.69514429  0.32153583  0.54772045    -0.06690
C509        C  0.67760710  0.30442686  0.57029261    -0.17930
C510        C  0.63862907  0.30883594  0.57639684     0.10460
S511        S  0.69460613  0.37274657  0.00639752    -0.32890
S512        S  0.61918368  0.28568932  0.60598721    -0.32900
H513        H  0.59357753  0.31042705  0.61466672     0.28470
H514        H  0.73134557  0.37331318  0.01929304     0.28460
H515        H  0.61811860  0.36741463  0.52607727     0.19060
H516        H  0.69363982  0.28596667  0.58213301     0.19060
C517        C  0.61386749  0.21107964  0.96403621    -0.06770
C518        C  0.62800689  0.20228041  0.99122536    -0.17900
C519        C  0.66575142  0.20946967  0.99943273     0.10430
C520        C  0.69087874  0.22481482  0.97955373    -0.06690
C521        C  0.67743671  0.23084699  0.95143209    -0.17930
C522        C  0.63937345  0.22408416  0.94347390     0.10460
S523        S  0.67800762  0.20156418  0.53654989    -0.32890
S524        S  0.62489665  0.23308442  0.90694327    -0.32900
H525        H  0.59720588  0.20808973  0.90518911     0.28470
H526        H  0.68191464  0.23506028  0.54295521     0.28460
H527        H  0.60856657  0.19233821  0.50713394     0.19060
H528        H  0.69622749  0.24209004  0.93578041     0.19060
C529        C  0.36317111  0.09429555  0.98559032    -0.06770
C530        C  0.35677455  0.11421512  0.96133027    -0.17900
C531        C  0.38227543  0.13940060  0.95414937     0.10430
C532        C  0.41495355  0.14502610  0.97169567    -0.06690
C533        C  0.42142991  0.12496514  0.99578706    -0.17930
C534        C  0.39617442  0.09972199  0.00287348     0.10460
S535        S  0.37223397  0.16252078  0.92184070    -0.32890
S536        S  0.40867678  0.07486910  0.53371049    -0.32900
H537        H  0.39671981  0.04516856  0.52151316     0.28470
H538        H  0.41076801  0.16416591  0.91297278     0.28460
H539        H  0.33167318  0.11014736  0.94784431     0.19060
H540        H  0.44657280  0.12893898  0.50925872     0.19060
C541        C  0.36462452  0.44956165  0.52573037    -0.06770
C542        C  0.35768422  0.42952851  0.54972124    -0.17900
C543        C  0.38334864  0.40460623  0.55772474     0.10430
C544        C  0.41678899  0.39926750  0.54124525    -0.06690
C545        C  0.42380737  0.41947852  0.51740611    -0.17930
C546        C  0.39837672  0.44453726  0.50955434     0.10460
S547        S  0.37238191  0.38146376  0.58970925    -0.32890
S548        S  0.41157793  0.46969551  0.97925925    -0.32900
H549        H  0.39829793  0.49916791  0.99105973     0.28470
H550        H  0.41039179  0.38122887  0.60029728     0.28460
H551        H  0.33200099  0.43331346  0.56237673     0.19060
H552        H  0.44948778  0.41577597  0.50473191     0.19060
C553        C  0.91740707  0.15260298  0.54547067    -0.06770
C554        C  0.92471355  0.17411285  0.52257732    -0.17900
C555        C  0.89948346  0.19972253  0.51583347     0.10430
C556        C  0.86557326  0.20382140  0.53199771    -0.06690
C557        C  0.85868614  0.18288894  0.55536746    -0.17930
C558        C  0.88428442  0.15755235  0.56241933     0.10460
S559        S  0.91295797  0.22690716  0.98698661    -0.32890
S560        S  0.87361557  0.13325722  0.59379369    -0.32900
H561        H  0.91194691  0.13160802  0.60361422     0.28470
H562        H  0.89931259  0.25547857  0.00035371     0.28460
H563        H  0.95031828  0.17091555  0.50971550     0.19060
H564        H  0.83299040  0.18612881  0.56812129     0.19060
C565        C  0.11372845  0.07192613  0.55618433    -0.06770
C566        C  0.12978998  0.04191434  0.56508252    -0.17900
C567        C  0.16857931  0.03466404  0.56099891     0.10430
C568        C  0.19247999  0.05767965  0.54714923    -0.06690
C569        C  0.17707012  0.08842360  0.53971268    -0.17930
C570        C  0.13834382  0.09602168  0.54455723     0.10460
S571        S  0.18431114  0.49413747  0.57099053    -0.32890
S572        S  0.12229076  0.13647244  0.53473418    -0.32900
H573        H  0.10227704  0.14132390  0.56058504     0.28470
H574        H  0.21491433  0.50572908  0.58807975     0.28460
H575        H  0.11170198  0.02318654  0.57441088     0.19060
H576        H  0.19508451  0.10638247  0.52920898     0.19060
C577        C  0.91489844  0.39594624  0.97417900    -0.06770
C578        C  0.88752592  0.38680822  0.95341252    -0.17900
C579        C  0.86158104  0.36130262  0.95859237     0.10430
C580        C  0.86203734  0.34508999  0.98556861    -0.06690
C581        C  0.88935525  0.35463362  0.50635421    -0.17930
C582        C  0.91550440  0.37980181  0.50103721     0.10460
S583        S  0.82812572  0.35139627  0.93024193    -0.32890
S584        S  0.94759547  0.39123259  0.52994803    -0.32900
H585        H  0.94604787  0.42503473  0.52419222     0.28470
H586        H  0.84192406  0.31913432  0.92771288     0.28460
H587        H  0.88693098  0.39914041  0.93273189     0.19060
H588        H  0.89011701  0.34267338  0.52719447     0.19060
C589        C  0.11146524  0.47710737  0.95770999    -0.06770
C590        C  0.13469138  0.45060146  0.96640282    -0.17900
C591        C  0.17463617  0.45393764  0.96942236     0.10430
C592        C  0.19212172  0.48436194  0.96343407    -0.06690
C593        C  0.16937163  0.01004175  0.95275322    -0.17930
C594        C  0.12948544  0.00720021  0.95064752     0.10460
S595        S  0.20162620  0.41868675  0.98142983    -0.32890
S596        S  0.10365963  0.04415805  0.94155375    -0.32900
H597        H  0.08190197  0.04357889  0.96698720     0.28470
H598        H  0.23588911  0.42760258  0.96756965     0.28460
H599        H  0.12165221  0.42726590  0.97145537     0.19060
H600        H  0.18224206  0.03372613  0.94872890     0.19060
C601        C  0.36202968  0.33283874  0.71287981    -0.06770
C602        C  0.34720395  0.34436911  0.73885415    -0.17900
C603        C  0.30934035  0.33776359  0.74683253     0.10430
C604        C  0.28487743  0.31983715  0.72801517    -0.06690
C605        C  0.29894992  0.31092066  0.70087865    -0.17930
C606        C  0.33699052  0.31740137  0.69306086     0.10460
S607        S  0.29583933  0.35034188  0.78246920    -0.32890
S608        S  0.35189511  0.30503922  0.65763024    -0.32900
H609        H  0.37787349  0.33103655  0.65383498     0.28470
H610        H  0.29319655  0.31787484  0.79249952     0.28460
H611        H  0.36610654  0.35639575  0.75414615     0.19060
H612        H  0.28063260  0.29776377  0.68594276     0.19060
C613        C  0.36019758  0.21825960  0.81116764    -0.06770
C614        C  0.33955194  0.19609323  0.79406552    -0.17900
C615        C  0.30008834  0.20021416  0.78911685     0.10430
C616        C  0.28087292  0.22754364  0.80092557    -0.06690
C617        C  0.30059079  0.24746542  0.82057520    -0.17930
C618        C  0.33980518  0.24290555  0.82609047     0.10460
S619        S  0.27619965  0.17047229  0.76672017    -0.32890
S620        S  0.36213140  0.26997636  0.85180061    -0.32900
H621        H  0.38691683  0.24591696  0.86332760     0.28470
H622        H  0.24000717  0.17422270  0.77966228     0.28460
H623        H  0.35449045  0.17635926  0.78334335     0.19060
H624        H  0.28607120  0.26809416  0.83029785     0.19060
C625        C  0.61294854  0.09755791  0.77581034    -0.06770
C626        C  0.60711238  0.10569151  0.80486232    -0.17900
C627        C  0.58028894  0.12956743  0.81285011     0.10430
C628        C  0.55839344  0.14574673  0.79143098    -0.06690
C629        C  0.56398808  0.13781624  0.76251598    -0.17930
C630        C  0.59150087  0.11467983  0.75439091     0.10460
S631        S  0.57440628  0.13746151  0.85073436    -0.32890
S632        S  0.59809118  0.10916166  0.71630729    -0.32900
H633        H  0.63779738  0.11564996  0.71774664     0.28470
H634        H  0.53467743  0.14370937  0.84923739     0.28460
H635        H  0.62321918  0.09311402  0.82161456     0.19060
H636        H  0.54760261  0.15059064  0.74600479     0.19060
C637        C  0.61440486  0.45145247  0.73350435    -0.06770
C638        C  0.62225493  0.41949695  0.74296427    -0.17900
C639        C  0.59650096  0.39392195  0.73761632     0.10430
C640        C  0.56198707  0.40030729  0.72229835    -0.06690
C641        C  0.55430538  0.43234022  0.71275952    -0.17930
C642        C  0.57997313  0.45792842  0.71827799     0.10460
S643        S  0.60858842  0.35423703  0.75214340    -0.32890
S644        S  0.56633858  0.49843299  0.70644913    -0.32900
H645        H  0.58186022  0.01492794  0.73036215     0.28470
H646        H  0.57116139  0.34726719  0.76162574     0.28460
H647        H  0.64851498  0.41450348  0.75494382     0.19060
H648        H  0.52787613  0.43756932  0.70109048     0.19060
C649        C  0.05987741  0.39646826  0.79275723    -0.06770
C650        C  0.07277744  0.37644002  0.81535999    -0.17900
C651        C  0.09760067  0.35004972  0.81034021     0.10430
C652        C  0.11114283  0.34417073  0.78211448    -0.06690
C653        C  0.09816389  0.36466899  0.75962040    -0.17930
C654        C  0.07289017  0.39063645  0.76463918     0.10460
S655        S  0.10916383  0.32421529  0.84065689    -0.32890
S656        S  0.05874504  0.41576887  0.73435506    -0.32900
H657        H  0.05470837  0.44501163  0.74991519     0.28470
H658        H  0.10008398  0.29510975  0.82600329     0.28460
H659        H  0.06225583  0.38065342  0.83693876     0.19060
H660        H  0.10814391  0.36080477  0.73786049     0.19060
C661        C  0.85992977  0.46768653  0.80725419    -0.06770
C662        C  0.84026224  0.44693949  0.78824886    -0.17900
C663        C  0.80107465  0.45146846  0.78235088     0.10430
C664        C  0.78112924  0.47783638  0.79518915    -0.06690
C665        C  0.79986973  0.99632872  0.81641002    -0.17930
C666        C  0.83877442  0.49129496  0.82283130     0.10460
S667        S  0.77859071  0.42345708  0.75753712    -0.32890
S668        S  0.85977750  0.01640030  0.85063581    -0.32900
H669        H  0.88438002  0.99170210  0.86128300     0.28470
H670        H  0.74202672  0.42531333  0.77020888     0.28460
H671        H  0.85582310  0.42805110  0.77686690     0.19060
H672        H  0.78483903  0.01620267  0.82687065     0.19060
C673        C  0.06366668  0.14939492  0.72302642    -0.06770
C674        C  0.05700343  0.18128073  0.71274333    -0.17900
C675        C  0.08250569  0.20678853  0.71893716     0.10430
C676        C  0.11576295  0.20036555  0.73560790    -0.06690
C677        C  0.12262763  0.16850149  0.74574071    -0.17930
C678        C  0.09700099  0.14302647  0.73974050     0.10460
S679        S  0.06997073  0.24717592  0.70619625    -0.32890
S680        S  0.10754675  0.10353495  0.75531782    -0.32900
H681        H  0.06939074  0.09698364  0.76331043     0.28470
H682        H  0.08297510  0.26370204  0.73091423     0.28460
H683        H  0.03142770  0.18647655  0.70003420     0.19060
H684        H  0.14794949  0.16351647  0.75881194     0.19060
C685        C  0.86410745  0.08047490  0.71451807    -0.06770
C686        C  0.84095597  0.06795161  0.69224733    -0.17900
C687        C  0.80143725  0.06310548  0.69592463     0.10430
C688        C  0.78453434  0.07028647  0.72275015    -0.06690
C689        C  0.80736975  0.08504157  0.74421731    -0.17930
C690        C  0.84683675  0.08950535  0.74067369     0.10460
S691        S  0.77460947  0.04725670  0.66576464    -0.32890
S692        S  0.87402083  0.10300865  0.77159976    -0.32900
H693        H  0.90234930  0.07852741  0.76919995     0.28470
H694        H  0.74148258  0.06593156  0.67141020     0.28460
H695        H  0.85388308  0.06141481  0.67190015     0.19060
H696        H  0.79519738  0.09058270  0.76504095     0.19060
In697      In  0.98210229  0.57910490  0.20529267     1.36870
C698        C  0.90612009  0.58140478  0.21047366     0.76940
O699        O  0.98175245  0.60302073  0.16222540    -0.61510
O700        O  0.99260985  0.55173217  0.16401804    -0.52420
C701        C  0.03482075  0.62395466  0.21647537     0.69600
O702        O  0.99922117  0.63021714  0.21586745    -0.47280
C703        C  0.99413429  0.53497576  0.24634155     0.74310
O704        O  0.92783786  0.60283406  0.22134673    -0.59140
O705        O  0.99753933  0.52814759  0.21998932    -0.49230
O706        O  0.92328419  0.55984610  0.19621931    -0.55570
C707        C  0.98797494  0.57698631  0.14860460     0.84490
O708        O  0.04352841  0.59458045  0.21092257    -0.57460
O709        O  0.98752731  0.56463608  0.25161664    -0.60760
In710      In  0.97884225  0.96676327  0.31009360     1.36870
C711        C  0.90242785  0.96652411  0.30818189     0.76940
O712        O  0.97684869  0.94263482  0.35307272    -0.61510
O713        O  0.98970694  0.99360762  0.35155278    -0.52420
C714        C  0.03106593  0.92176683  0.29882503     0.69600
O715        O  0.99651997  0.91930330  0.29048210    -0.47280
C716        C  0.99334602  0.01005303  0.26898983     0.74310
O717        O  0.92195402  0.94130059  0.30237516    -0.59140
O718        O  0.99788172  0.51664956  0.29533441    -0.49230
O719        O  0.92219959  0.99137303  0.31396870    -0.55570
C720        C  0.98401046  0.96845832  0.36683258     0.84490
O721        O  0.03902100  0.94737040  0.31281235    -0.57460
O722        O  0.98414847  0.98089536  0.26373971    -0.60760
In723      In  0.69037440  0.52405677  0.25586802     1.36870
C724        C  0.74500450  0.99107112  0.28276992     0.76940
O725        O  0.65299693  0.98176056  0.26664377    -0.61510
O726        O  0.65586727  0.99695382  0.22267850    -0.52420
C727        C  0.64060038  0.57087897  0.26891983     0.69600
O728        O  0.65893665  0.55494827  0.28806707    -0.47280
C729        C  0.74670288  0.55714204  0.23172052     0.74310
O730        O  0.72289066  0.51042986  0.29616185    -0.58980
O731        O  0.72837922  0.53522219  0.21814719    -0.49230
O732        O  0.73638081  0.98675461  0.25665653    -0.55570
C733        C  0.64185044  0.97745313  0.24102480     0.84490
O734        O  0.64770195  0.56207399  0.24352402    -0.57460
O735        O  0.73272593  0.56431527  0.25585125    -0.60760
In736      In  0.47915528  0.71718069  0.31068150     1.36870
C737        C  0.40271616  0.71714712  0.31080652     0.76940
O738        O  0.47675843  0.69320321  0.35358314    -0.61510
O739        O  0.49347966  0.74336629  0.35198446    -0.52420
C740        C  0.53022501  0.67144133  0.29828275     0.69600
O741        O  0.49568399  0.67011757  0.28972423    -0.47280
C742        C  0.49209282  0.76067665  0.26933568     0.74310
O743        O  0.42189464  0.69176581  0.30490153    -0.59140
O744        O  0.49714530  0.76732801  0.29562634    -0.49230
O745        O  0.42281696  0.74210757  0.31549356    -0.55570
C746        C  0.48631895  0.71849573  0.36729125     0.84490
O747        O  0.53882962  0.69647638  0.31285583    -0.57460
O748        O  0.48317658  0.73141513  0.26424736    -0.60760
In749      In  0.48041312  0.82964204  0.20529392     1.36870
C750        C  0.40418919  0.83301181  0.20921008     0.76940
O751        O  0.47994641  0.85301758  0.16199978    -0.61510
O752        O  0.49245921  0.80205134  0.16427490    -0.52420
C753        C  0.53312672  0.87469070  0.21621971     0.69600
O754        O  0.49748087  0.88073852  0.21615792    -0.47280
C755        C  0.49232558  0.78553760  0.24656664     0.74310
O756        O  0.42599205  0.85415148  0.22043818    -0.59140
O757        O  0.49501197  0.77855823  0.22020766    -0.49230
O758        O  0.42152797  0.81068800  0.19601354    -0.55570
C759        C  0.48738975  0.82705602  0.14862174     0.84490
O760        O  0.54185433  0.84539492  0.21041554    -0.57460
O761        O  0.48618202  0.81529428  0.25175311    -0.60760
In762      In  0.19047701  0.77288585  0.26064572     1.36870
C763        C  0.24729126  0.80636711  0.23734512     0.76940
O764        O  0.14765550  0.81136060  0.24926573    -0.61510
O765        O  0.15755655  0.80130194  0.29357854    -0.52420
C766        C  0.14283098  0.72633203  0.24403911     0.69600
O767        O  0.15686067  0.74663803  0.22638753    -0.47280
C768        C  0.24468504  0.74029930  0.28833332     0.74310
O769        O  0.22915049  0.78466874  0.22334121    -0.59140
O770        O  0.22275674  0.76018212  0.30125173    -0.49230
O771        O  0.23259517  0.81336247  0.26120071    -0.55570
C772        C  0.13934201  0.81806209  0.27499999     0.84490
O773        O  0.15362479  0.72978343  0.26983737    -0.57460
O774        O  0.23596895  0.73513065  0.26236131    -0.60760
In775      In  0.99276413  0.96816309  0.45480314     1.36870
C776        C  0.06906550  0.97282411  0.45647672     0.76940
O777        O  0.99646001  0.94365177  0.41226007    -0.61510
O778        O  0.97757662  0.99339704  0.41319811    -0.52420
C779        C  0.94283102  0.92172737  0.46702977     0.69600
O780        O  0.97838173  0.91893169  0.47251559    -0.47280
C781        C  0.97899077  0.51078327  0.49633569     0.74310
O782        O  0.05184818  0.94751776  0.46536368    -0.59140
O783        O  0.97357731  0.51780197  0.47011581    -0.49230
O784        O  0.04699411  0.99448419  0.44655126    -0.55570
C785        C  0.98602492  0.96864715  0.39822360     0.84490
O786        O  0.93294079  0.94822702  0.45491341    -0.57460
O787        O  0.98827963  0.98151095  0.50124744    -0.60760
In788      In  0.99485585  0.57795700  0.06054415     1.36870
C789        C  0.07126925  0.57544519  0.05780889     0.76940
O790        O  0.99952978  0.60186353  0.10330744    -0.61510
O791        O  0.98132733  0.55207238  0.10211118    -0.52420
C792        C  0.94487788  0.62556368  0.05075913     0.69600
O793        O  0.98040881  0.62846936  0.04576227    -0.47280
C794        C  0.97943283  0.53532341  0.01916496     0.74310
O795        O  0.05222092  0.59925926  0.04771869    -0.59140
O796        O  0.97632060  0.52808922  0.04547970    -0.49230
O797        O  0.05086198  0.55351922  0.06897100    -0.55570
C798        C  0.98972741  0.57676024  0.11722479     0.84490
O799        O  0.93485412  0.59781463  0.06018423    -0.57460
O800        O  0.98731164  0.56481209  0.01410724    -0.60760
In801      In  0.28576849  0.52133478  0.00480809     1.36870
C802        C  0.22992234  0.54807241  0.03481496     0.76940
O803        O  0.32607212  0.56104718  0.01783028    -0.61510
O804        O  0.31769082  0.55228526  0.47308162    -0.52420
C805        C  0.33609980  0.97505036  0.01819932     0.69600
O806        O  0.31791125  0.99087687  0.03707022    -0.47280
C807        C  0.23037938  0.99329373  0.47488350     0.74310
O808        O  0.25099655  0.52551637  0.04492765    -0.59140
O809        O  0.24991766  0.51669396  0.46477777    -0.49230
O810        O  0.24122429  0.55983355  0.01125968    -0.55570
C811        C  0.33492700  0.56851596  0.49235674     0.84490
O812        O  0.32777338  0.98254450  0.49251200    -0.57460
O813        O  0.24301715  0.98156834  0.99820349    -0.60760
In814      In  0.49577203  0.71607712  0.45537026     1.36870
C815        C  0.57184473  0.71142220  0.45974940     0.76940
O816        O  0.49606539  0.69227178  0.41239293    -0.61510
O817        O  0.48439771  0.74345704  0.41396366    -0.52420
C818        C  0.44336809  0.67086062  0.46562281     0.69600
O819        O  0.47887770  0.66637544  0.47001014    -0.47280
C820        C  0.48408419  0.76039046  0.49621583     0.74310
O821        O  0.54968327  0.69060834  0.47085506    -0.59140
O822        O  0.48229706  0.76751408  0.46979865    -0.49230
O823        O  0.55500909  0.73402699  0.44624052    -0.55570
C824        C  0.48907028  0.71826813  0.39866208     0.84490
O825        O  0.43443219  0.69897128  0.45619432    -0.57460
O826        O  0.48894385  0.73049945  0.50157119    -0.60760
In827      In  0.49726698  0.82820982  0.06057416     1.36870
C828        C  0.57369733  0.83027346  0.05986516     0.76940
O829        O  0.49738991  0.85245189  0.10334261    -0.61510
O830        O  0.48529031  0.80141405  0.10213697    -0.52420
C831        C  0.44522148  0.87343342  0.04814194     0.69600
O832        O  0.48065596  0.87713058  0.04326614    -0.47280
C833        C  0.48466059  0.78505720  0.01898900     0.74310
O834        O  0.55323744  0.85424639  0.05186138    -0.59140
O835        O  0.47967152  0.77816605  0.04521214    -0.49230
O836        O  0.55485577  0.80553619  0.06747559    -0.55570
C837        C  0.49013761  0.82674316  0.11725865     0.84490
O838        O  0.43630564  0.84606620  0.05895225    -0.57460
O839        O  0.49371076  0.81432873  0.01404343    -0.60760
In840      In  0.78517567  0.77367001  0.01027846     1.36870
C841        C  0.72853404  0.73873554  0.48843765     0.76940
O842        O  0.82803709  0.73570961  0.49862534    -0.61510
O843        O  0.81783058  0.74450499  0.04321482    -0.52420
C844        C  0.83391381  0.81949629  0.49376664     0.69600
O845        O  0.81497327  0.80248623  0.47591102    -0.47280
C846        C  0.73129961  0.80809640  0.03595791     0.74310
O847        O  0.74688440  0.75918300  0.47323673    -0.59140
O848        O  0.75352199  0.78917627  0.05003378    -0.49230
O849        O  0.74306939  0.73347877  0.01290840    -0.55570
C850        C  0.83645690  0.72877146  0.02443929     0.84490
O851        O  0.82734008  0.81287712  0.01984792    -0.57460
O852        O  0.73973136  0.81152126  0.00980496    -0.60760
C853        C  0.61620818  0.83032934  0.05916427    -0.06770
C854        C  0.63465857  0.85001860  0.03875707    -0.17900
C855        C  0.67388110  0.84620263  0.03314961     0.10430
C856        C  0.69514432  0.82153585  0.04772045    -0.06690
C857        C  0.67760713  0.80442690  0.07029262    -0.17930
C858        C  0.63862910  0.80883597  0.07639685     0.10460
S859        S  0.69460614  0.87274659  0.50639755    -0.32890
S860        S  0.61918373  0.78568936  0.10598724    -0.32900
H861        H  0.59357756  0.81042710  0.11466673     0.28470
H862        H  0.73134558  0.87331319  0.51929307     0.28460
H863        H  0.61811862  0.86741463  0.02607726     0.19060
H864        H  0.69363986  0.78596672  0.08213302     0.19060
C865        C  0.61386746  0.71107968  0.46403619    -0.06770
C866        C  0.62800687  0.70228044  0.49122534    -0.17900
C867        C  0.66575140  0.70946970  0.49943271     0.10430
C868        C  0.69087872  0.72481485  0.47955371    -0.06690
C869        C  0.67743669  0.73084702  0.45143207    -0.17930
C870        C  0.63937342  0.72408420  0.44347388     0.10460
S871        S  0.67800763  0.70156422  0.03654992    -0.32890
S872        S  0.62489663  0.73308446  0.40694325    -0.32900
H873        H  0.59720586  0.70808977  0.40518909     0.28470
H874        H  0.68191465  0.73506032  0.04295522     0.28460
H875        H  0.60856659  0.69233823  0.00713397     0.19060
H876        H  0.69622746  0.74209008  0.43578039     0.19060
C877        C  0.36317109  0.59429556  0.48559029    -0.06770
C878        C  0.35677452  0.61421514  0.46133025    -0.17900
C879        C  0.38227540  0.63940061  0.45414935     0.10430
C880        C  0.41495353  0.64502611  0.47169565    -0.06690
C881        C  0.42142990  0.62496515  0.49578704    -0.17930
C882        C  0.39617441  0.59972199  0.50287345     0.10460
S883        S  0.37223393  0.66252080  0.42184069    -0.32890
S884        S  0.40867681  0.57486909  0.03371050    -0.32900
H885        H  0.39671982  0.54516855  0.02151317     0.28470
H886        H  0.41076798  0.66416593  0.41297276     0.28460
H887        H  0.33167315  0.61014738  0.44784429     0.19060
H888        H  0.44657283  0.62893896  0.00925873     0.19060
C889        C  0.36462454  0.94956164  0.02573039    -0.06770
C890        C  0.35768424  0.92952850  0.04972125    -0.17900
C891        C  0.38334866  0.90460622  0.05772475     0.10430
C892        C  0.41678901  0.89926750  0.04124526    -0.06690
C893        C  0.42380739  0.91947853  0.01740612    -0.17930
C894        C  0.39837674  0.94453727  0.00955436     0.10460
S895        S  0.37238193  0.88146374  0.08970926    -0.32890
S896        S  0.41157794  0.96969552  0.47925924    -0.32900
H897        H  0.39829794  0.99916791  0.49105971     0.28470
H898        H  0.41039181  0.88122886  0.10029729     0.28460
H899        H  0.33200101  0.93331344  0.06237674     0.19060
H900        H  0.44948781  0.91577598  0.00473193     0.19060
C901        C  0.91740708  0.65260297  0.04547067    -0.06770
C902        C  0.92471356  0.67411284  0.02257732    -0.17900
C903        C  0.89948347  0.69972253  0.01583347     0.10430
C904        C  0.86557328  0.70382140  0.03199771    -0.06690
C905        C  0.85868615  0.68288894  0.05536746    -0.17930
C906        C  0.88428442  0.65755235  0.06241933     0.10460
S907        S  0.91295797  0.72690717  0.48698662    -0.32890
S908        S  0.87361557  0.63325721  0.09379369    -0.32900
H909        H  0.91194692  0.63160802  0.10361422     0.28470
H910        H  0.89931258  0.75547857  0.50035372     0.28460
H911        H  0.95031829  0.67091555  0.00971550     0.19060
H912        H  0.83299041  0.68612881  0.06812129     0.19060
C913        C  0.11372845  0.57192612  0.05618435    -0.06770
C914        C  0.12978998  0.54191434  0.06508254    -0.17900
C915        C  0.16857932  0.53466404  0.06099894     0.10430
C916        C  0.19248000  0.55767966  0.04714926    -0.06690
C917        C  0.17707012  0.58842360  0.03971271    -0.17930
C918        C  0.13834382  0.59602168  0.04455725     0.10460
S919        S  0.18431115  0.99413745  0.07099053    -0.32890
S920        S  0.12229075  0.63647243  0.03473419    -0.32900
H921        H  0.10227703  0.64132390  0.06058505     0.28470
H922        H  0.21491433  0.00572905  0.08807976     0.28460
H923        H  0.11170199  0.52318655  0.07441090     0.19060
H924        H  0.19508452  0.60638248  0.02920901     0.19060
C925        C  0.91489844  0.89594625  0.47417900    -0.06770
C926        C  0.88752593  0.88680822  0.45341251    -0.17900
C927        C  0.86158106  0.86130261  0.45859236     0.10430
C928        C  0.86203734  0.84509000  0.48556861    -0.06690
C929        C  0.88935528  0.85463363  0.00635422    -0.17930
C930        C  0.91550442  0.87980182  0.00103722     0.10460
S931        S  0.82812576  0.85139625  0.43024191    -0.32890
S932        S  0.94759549  0.89123260  0.02994804    -0.32900
H933        H  0.94604789  0.92503474  0.02419222     0.28470
H934        H  0.84192410  0.81913429  0.42771288     0.28460
H935        H  0.88693100  0.89914040  0.43273188     0.19060
H936        H  0.89011703  0.84267339  0.02719448     0.19060
C937        C  0.11146525  0.97710736  0.45770997    -0.06770
C938        C  0.13469138  0.95060146  0.46640281    -0.17900
C939        C  0.17463617  0.95393763  0.46942235     0.10430
C940        C  0.19212172  0.98436192  0.46343404    -0.06690
C941        C  0.16937161  0.51004175  0.45275320    -0.17930
C942        C  0.12948542  0.50720020  0.45064750     0.10460
S943        S  0.20162619  0.91868674  0.48142983    -0.32890
S944        S  0.10365961  0.54415804  0.44155373    -0.32900
H945        H  0.08190196  0.54357890  0.46698717     0.28470
H946        H  0.23588911  0.92760255  0.46756964     0.28460
H947        H  0.12165221  0.92726590  0.47145538     0.19060
H948        H  0.18224204  0.53372612  0.44872887     0.19060
C949        C  0.36202968  0.83283877  0.21287984    -0.06770
C950        C  0.34720397  0.84436907  0.23885421    -0.17900
C951        C  0.30934038  0.83776353  0.24683259     0.10430
C952        C  0.28487744  0.81983715  0.22801521    -0.06690
C953        C  0.29894990  0.81092073  0.20087867    -0.17930
C954        C  0.33699050  0.81740145  0.19306086     0.10460
S955        S  0.29583941  0.85034171  0.28246930    -0.32890
S956        S  0.35189506  0.80503938  0.15763022    -0.32900
H957        H  0.37787345  0.83103671  0.15383500     0.28470
H958        H  0.29319657  0.81787464  0.29249954     0.28460
H959        H  0.36610658  0.85639567  0.25414623     0.19060
H960        H  0.28063256  0.79776388  0.18594276     0.19060
C961        C  0.36019755  0.71825951  0.31116761    -0.06770
C962        C  0.33955193  0.69609318  0.29406544    -0.17900
C963        C  0.30008833  0.70021411  0.28911676     0.10430
C964        C  0.28087289  0.72754356  0.30092553    -0.06690
C965        C  0.30059074  0.74746529  0.32057521    -0.17930
C966        C  0.33980513  0.74290541  0.32609049     0.10460
S967        S  0.27619967  0.67047230  0.26672001    -0.32890
S968        S  0.36213132  0.76997614  0.35180070    -0.32900
H969        H  0.38691678  0.74591672  0.36332763     0.28470
H970        H  0.24000718  0.67422266  0.27966212     0.28460
H971        H  0.35449046  0.67635924  0.28334323     0.19060
H972        H  0.28607113  0.76809399  0.33029790     0.19060
C973        C  0.61294856  0.59755793  0.27581034    -0.06770
C974        C  0.60711240  0.60569154  0.30486232    -0.17900
C975        C  0.58028896  0.62956745  0.31285010     0.10430
C976        C  0.55839344  0.64574674  0.29143097    -0.06690
C977        C  0.56398808  0.63781625  0.26251598    -0.17930
C978        C  0.59150087  0.61467984  0.25439091     0.10460
S979        S  0.57440631  0.63746155  0.35073435    -0.32890
S980        S  0.59809118  0.60916165  0.21630729    -0.32900
H981        H  0.63779738  0.61564996  0.21774663     0.28470
H982        H  0.53467745  0.64370939  0.34923739     0.28460
H983        H  0.62321921  0.59311405  0.32161456     0.19060
H984        H  0.54760260  0.65059063  0.24600479     0.19060
C985        C  0.61440486  0.95145247  0.23350436    -0.06770
C986        C  0.62225492  0.91949695  0.24296429    -0.17900
C987        C  0.59650094  0.89392196  0.23761635     0.10430
C988        C  0.56198706  0.90030730  0.22229836    -0.06690
C989        C  0.55430539  0.93234022  0.21275951    -0.17930
C990        C  0.57997314  0.95792842  0.21827798     0.10460
S991        S  0.60858837  0.85423704  0.25214345    -0.32890
S992        S  0.56633862  0.99843299  0.20644910    -0.32900
H993        H  0.58186022  0.51492795  0.23036217     0.28470
H994        H  0.57116134  0.84726722  0.26162578     0.28460
H995        H  0.64851495  0.91450349  0.25494386     0.19060
H996        H  0.52787616  0.93756932  0.20109046     0.19060
C997        C  0.05987741  0.89646826  0.29275723    -0.06770
C998        C  0.07277746  0.87644003  0.31536000    -0.17900
C999        C  0.09760070  0.85004973  0.31034021     0.10430
C1000       C  0.11114283  0.84417072  0.28211448    -0.06690
C1001       C  0.09816387  0.86466897  0.25962040    -0.17930
C1002       C  0.07289015  0.89063643  0.26463918     0.10460
S1003       S  0.10916388  0.82421531  0.34065690    -0.32890
S1004       S  0.05874500  0.91576883  0.23435505    -0.32900
H1005       H  0.05470835  0.94501161  0.24991518     0.28470
H1006       H  0.10008401  0.79510977  0.32600332     0.28460
H1007       H  0.06225587  0.88065344  0.33693877     0.19060
H1008       H  0.10814387  0.86080474  0.23786048     0.19060
C1009       C  0.85992978  0.96768653  0.30725419    -0.06770
C1010       C  0.84026225  0.94693949  0.28824886    -0.17900
C1011       C  0.80107465  0.95146846  0.28235089     0.10430
C1012       C  0.78112925  0.97783638  0.29518916    -0.06690
C1013       C  0.79986974  0.49632871  0.31641003    -0.17930
C1014       C  0.83877443  0.99129495  0.32283131     0.10460
S1015       S  0.77859071  0.92345707  0.25753712    -0.32890
S1016       S  0.85977751  0.51640028  0.35063582    -0.32900
H1017       H  0.88438004  0.49170207  0.36128300     0.28470
H1018       H  0.74202673  0.92531332  0.27020889     0.28460
H1019       H  0.85582310  0.92805110  0.27686691     0.19060
H1020       H  0.78483904  0.51620266  0.32687067     0.19060
C1021       C  0.06366667  0.64939492  0.22302640    -0.06770
C1022       C  0.05700342  0.68128072  0.21274333    -0.17900
C1023       C  0.08250567  0.70678853  0.21893716     0.10430
C1024       C  0.11576294  0.70036554  0.23560789    -0.06690
C1025       C  0.12262764  0.66850148  0.24574069    -0.17930
C1026       C  0.09700099  0.64302647  0.23974048     0.10460
S1027       S  0.06997070  0.74717592  0.20619626    -0.32890
S1028       S  0.10754677  0.60353494  0.25531779    -0.32900
H1029       H  0.06939076  0.59698363  0.26331041     0.28470
H1030       H  0.08297509  0.76370203  0.23091424     0.28460
H1031       H  0.03142768  0.68647654  0.20003420     0.19060
H1032       H  0.14794949  0.66351647  0.25881191     0.19060
C1033       C  0.86410745  0.58047491  0.21451807    -0.06770
C1034       C  0.84095597  0.56795160  0.19224734    -0.17900
C1035       C  0.80143725  0.56310548  0.19592463     0.10430
C1036       C  0.78453434  0.57028648  0.22275015    -0.06690
C1037       C  0.80736975  0.58504159  0.24421730    -0.17930
C1038       C  0.84683675  0.58950537  0.24067368     0.10460
S1039       S  0.77460947  0.54725668  0.16576464    -0.32890
S1040       S  0.87402083  0.60300868  0.27159975    -0.32900
H1041       H  0.90234929  0.57852744  0.26919995     0.28470
H1042       H  0.74148259  0.56593154  0.17141019     0.28460
H1043       H  0.85388308  0.56141479  0.17190015     0.19060
H1044       H  0.79519738  0.59058273  0.26504094     0.19060
In1045     In  0.98210228  0.57910491  0.70529266     1.36870
C1046       C  0.90612008  0.58140479  0.71047365     0.76940
O1047       O  0.98175245  0.60302074  0.66222539    -0.61510
O1048       O  0.99260984  0.55173218  0.66401804    -0.52420
C1049       C  0.03482075  0.62395466  0.71647537     0.69600
O1050       O  0.99922116  0.63021715  0.71586745    -0.47280
C1051       C  0.99413427  0.53497577  0.74634155     0.74310
O1052       O  0.92783785  0.60283407  0.72134673    -0.59140
O1053       O  0.99753932  0.52814760  0.71998932    -0.49230
O1054       O  0.92328419  0.55984611  0.69621930    -0.55570
C1055       C  0.98797494  0.57698632  0.64860460     0.84490
O1056       O  0.04352840  0.59458046  0.71092258    -0.57460
O1057       O  0.98752729  0.56463609  0.75161663    -0.60760
In1058     In  0.97884225  0.96676327  0.81009360     1.36870
C1059       C  0.90242785  0.96652412  0.80818189     0.76940
O1060       O  0.97684869  0.94263482  0.85307272    -0.61510
O1061       O  0.98970694  0.99360762  0.85155279    -0.52420
C1062       C  0.03106592  0.92176683  0.79882503     0.69600
O1063       O  0.99651996  0.91930329  0.79048213    -0.47280
C1064       C  0.99334601  0.01005303  0.76898983     0.74310
O1065       O  0.92195402  0.94130060  0.80237515    -0.59140
O1066       O  0.99788171  0.51664957  0.79533441    -0.49230
O1067       O  0.92219958  0.99137304  0.81396871    -0.55570
C1068       C  0.98401047  0.96845832  0.86683259     0.84490
O1069       O  0.03902100  0.94737041  0.81281233    -0.57460
O1070       O  0.98414847  0.98089536  0.76373971    -0.60760
In1071     In  0.69037439  0.52405677  0.75586801     1.36870
C1072       C  0.74500449  0.99107112  0.78276991     0.76940
O1073       O  0.65299693  0.98176055  0.76664376    -0.61510
O1074       O  0.65586726  0.99695382  0.72267849    -0.52420
C1075       C  0.64060037  0.57087896  0.76891983     0.69600
O1076       O  0.65893664  0.55494826  0.78806706    -0.47280
C1077       C  0.74670287  0.55714203  0.73172051     0.74310
O1078       O  0.72289065  0.51042985  0.79616184    -0.58980
O1079       O  0.72837921  0.53522219  0.71814718    -0.49230
O1080       O  0.73638081  0.98675461  0.75665652    -0.55570
C1081       C  0.64185043  0.97745313  0.74102478     0.84490
O1082       O  0.64770194  0.56207399  0.74352401    -0.57460
O1083       O  0.73272591  0.56431527  0.75585124    -0.60760
In1084     In  0.47915530  0.71718070  0.81068151     1.36870
C1085       C  0.40271618  0.71714716  0.81080654     0.76940
O1086       O  0.47675843  0.69320322  0.85358315    -0.61510
O1087       O  0.49347971  0.74336629  0.85198447    -0.52420
C1088       C  0.53022501  0.67144133  0.79828276     0.69600
O1089       O  0.49568400  0.67011758  0.78972424    -0.47280
C1090       C  0.49209284  0.76067665  0.76933569     0.74310
O1091       O  0.42189465  0.69176584  0.80490156    -0.59140
O1092       O  0.49714533  0.76732802  0.79562635    -0.49230
O1093       O  0.42281700  0.74210760  0.81549356    -0.55570
C1094       C  0.48631898  0.71849573  0.86729126     0.84490
O1095       O  0.53882963  0.69647637  0.81285584    -0.57460
O1096       O  0.48317660  0.73141513  0.76424737    -0.60760
In1097     In  0.48041312  0.82964203  0.70529392     1.36870
C1098       C  0.40418919  0.83301179  0.70921007     0.76940
O1099       O  0.47994640  0.85301757  0.66199978    -0.61510
O1100       O  0.49245921  0.80205133  0.66427490    -0.52420
C1101       C  0.53312672  0.87469069  0.71621970     0.69600
O1102       O  0.49748087  0.88073851  0.71615793    -0.47280
C1103       C  0.49232560  0.78553760  0.74656664     0.74310
O1104       O  0.42599205  0.85415148  0.72043816    -0.59140
O1105       O  0.49501198  0.77855823  0.72020766    -0.49230
O1106       O  0.42152798  0.81068797  0.69601355    -0.55570
C1107       C  0.48738974  0.82705602  0.64862174     0.84490
O1108       O  0.54185433  0.84539491  0.71041552    -0.57460
O1109       O  0.48618202  0.81529428  0.75175311    -0.60760
In1110     In  0.19047701  0.77288585  0.76064573     1.36870
C1111       C  0.24729125  0.80636711  0.73734511     0.76940
O1112       O  0.14765551  0.81136061  0.74926574    -0.61510
O1113       O  0.15755654  0.80130194  0.79357855    -0.52420
C1114       C  0.14283098  0.72633203  0.74403913     0.69600
O1115       O  0.15686067  0.74663803  0.72638755    -0.47280
C1116       C  0.24468505  0.74029933  0.78833335     0.74310
O1117       O  0.22915049  0.78466873  0.72334121    -0.59140
O1118       O  0.22275675  0.76018216  0.80125175    -0.49230
O1119       O  0.23259517  0.81336247  0.76120070    -0.55570
C1120       C  0.13934200  0.81806209  0.77499999     0.84490
O1121       O  0.15362479  0.72978343  0.76983738    -0.57460
O1122       O  0.23596895  0.73513065  0.76236135    -0.60760
In1123     In  0.99276414  0.96816310  0.95480314     1.36870
C1124       C  0.06906550  0.97282411  0.95647673     0.76940
O1125       O  0.99646002  0.94365177  0.91226007    -0.61510
O1126       O  0.97757662  0.99339704  0.91319811    -0.52420
C1127       C  0.94283103  0.92172737  0.96702978     0.69600
O1128       O  0.97838174  0.91893169  0.97251559    -0.47280
C1129       C  0.97899078  0.51078327  0.99633569     0.74310
O1130       O  0.05184819  0.94751776  0.96536370    -0.59140
O1131       O  0.97357732  0.51780197  0.97011581    -0.49230
O1132       O  0.04699412  0.99448419  0.94655126    -0.55570
C1133       C  0.98602493  0.96864716  0.89822360     0.84490
O1134       O  0.93294080  0.94822702  0.95491341    -0.57460
O1135       O  0.98827962  0.98151095  0.00124744    -0.60760
In1136     In  0.99485584  0.57795701  0.56054415     1.36870
C1137       C  0.07126925  0.57544520  0.55780888     0.76940
O1138       O  0.99952978  0.60186354  0.60330744    -0.61510
O1139       O  0.98132732  0.55207239  0.60211118    -0.52420
C1140       C  0.94487786  0.62556369  0.55075912     0.69600
O1141       O  0.98040879  0.62846937  0.54576226    -0.47280
C1142       C  0.97943282  0.53532341  0.51916496     0.74310
O1143       O  0.05222091  0.59925926  0.54771867    -0.59140
O1144       O  0.97632059  0.52808922  0.54547970    -0.49230
O1145       O  0.05086198  0.55351923  0.56897100    -0.55570
C1146       C  0.98972741  0.57676025  0.61722479     0.84490
O1147       O  0.93485411  0.59781464  0.56018422    -0.57460
O1148       O  0.98731162  0.56481210  0.51410723    -0.60760
In1149     In  0.28576848  0.52133477  0.50480807     1.36870
C1150       C  0.22992233  0.54807241  0.53481494     0.76940
O1151       O  0.32607210  0.56104718  0.51783025    -0.61510
O1152       O  0.31769084  0.55228526  0.97308164    -0.52420
C1153       C  0.33609979  0.97505037  0.51819930     0.69600
O1154       O  0.31791124  0.99087687  0.53707020    -0.47280
C1155       C  0.23037939  0.99329373  0.97488353     0.74310
O1156       O  0.25099654  0.52551637  0.54492763    -0.59140
O1157       O  0.24991767  0.51669397  0.96477780    -0.49230
O1158       O  0.24122428  0.55983355  0.51125965    -0.55570
C1159       C  0.33492702  0.56851596  0.99235676     0.84490
O1160       O  0.32777339  0.98254449  0.99251202    -0.57460
O1161       O  0.24301715  0.98156834  0.49820347    -0.60760
In1162     In  0.49577206  0.71607710  0.95537027     1.36870
C1163       C  0.57184475  0.71142218  0.95974941     0.76940
O1164       O  0.49606540  0.69227177  0.91239295    -0.61510
O1165       O  0.48439776  0.74345704  0.91396367    -0.52420
C1166       C  0.44336811  0.67086061  0.96562282     0.69600
O1167       O  0.47887772  0.66637543  0.97001015    -0.47280
C1168       C  0.48408422  0.76039045  0.99621585     0.74310
O1169       O  0.54968329  0.69060832  0.97085507    -0.59140
O1170       O  0.48229707  0.76751406  0.96979866    -0.49230
O1171       O  0.55500912  0.73402697  0.94624053    -0.55570
C1172       C  0.48907031  0.71826813  0.89866209     0.84490
O1173       O  0.43443221  0.69897128  0.95619434    -0.57460
O1174       O  0.48894389  0.73049944  0.00157121    -0.60760
In1175     In  0.49726697  0.82820982  0.56057415     1.36870
C1176       C  0.57369731  0.83027346  0.55986516     0.76940
O1177       O  0.49738988  0.85245189  0.60334260    -0.61510
O1178       O  0.48529029  0.80141404  0.60213696    -0.52420
C1179       C  0.44522147  0.87343343  0.54814193     0.69600
O1180       O  0.48065595  0.87713058  0.54326614    -0.47280
C1181       C  0.48466056  0.78505721  0.51898899     0.74310
O1182       O  0.55323742  0.85424638  0.55186138    -0.59140
O1183       O  0.47967149  0.77816605  0.54521213    -0.49230
O1184       O  0.55485575  0.80553618  0.56747558    -0.55570
C1185       C  0.49013759  0.82674316  0.61725864     0.84490
O1186       O  0.43630562  0.84606620  0.55895224    -0.57460
O1187       O  0.49371075  0.81432873  0.51404342    -0.60760
In1188     In  0.78517565  0.77367001  0.51027846     1.36870
C1189       C  0.72853406  0.73873553  0.98843767     0.76940
O1190       O  0.82803711  0.73570961  0.99862535    -0.61510
O1191       O  0.81783056  0.74450499  0.54321481    -0.52420
C1192       C  0.83391383  0.81949629  0.99376664     0.69600
O1193       O  0.81497329  0.80248623  0.97591103    -0.47280
C1194       C  0.73129959  0.80809639  0.53595791     0.74310
O1195       O  0.74688442  0.75918298  0.97323674    -0.59140
O1196       O  0.75352197  0.78917626  0.55003377    -0.49230
O1197       O  0.74306938  0.73347877  0.51290838    -0.55570
C1198       C  0.83645688  0.72877146  0.52443928     0.84490
O1199       O  0.82734006  0.81287713  0.51984791    -0.57460
O1200       O  0.73973134  0.81152126  0.50980497    -0.60760
C1201       C  0.61620816  0.83032933  0.55916427    -0.06770
C1202       C  0.63465856  0.85001860  0.53875708    -0.17900
C1203       C  0.67388109  0.84620263  0.53314962     0.10430
C1204       C  0.69514430  0.82153585  0.54772045    -0.06690
C1205       C  0.67760711  0.80442688  0.57029262    -0.17930
C1206       C  0.63862908  0.80883596  0.57639685     0.10460
S1207       S  0.69460615  0.87274658  0.00639753    -0.32890
S1208       S  0.61918370  0.78568933  0.60598722    -0.32900
H1209       H  0.59357754  0.81042706  0.61466673     0.28470
H1210       H  0.73134559  0.87331319  0.01929305     0.28460
H1211       H  0.61811861  0.86741464  0.52607727     0.19060
H1212       H  0.69363984  0.78596670  0.58213302     0.19060
C1213       C  0.61386749  0.71107966  0.96403621    -0.06770
C1214       C  0.62800689  0.70228043  0.99122536    -0.17900
C1215       C  0.66575142  0.70946968  0.99943273     0.10430
C1216       C  0.69087874  0.72481483  0.97955373    -0.06690
C1217       C  0.67743671  0.73084700  0.95143208    -0.17930
C1218       C  0.63937345  0.72408417  0.94347390     0.10460
S1219       S  0.67800761  0.70156422  0.53654990    -0.32890
S1220       S  0.62489666  0.73308442  0.90694326    -0.32900
H1221       H  0.59720589  0.70808974  0.90518911     0.28470
H1222       H  0.68191464  0.73506032  0.54295520     0.28460
H1223       H  0.60856656  0.69233824  0.50713395     0.19060
H1224       H  0.69622749  0.74209005  0.93578041     0.19060
C1225       C  0.36317110  0.59429556  0.98559032    -0.06770
C1226       C  0.35677454  0.61421514  0.96133027    -0.17900
C1227       C  0.38227542  0.63940061  0.95414938     0.10430
C1228       C  0.41495355  0.64502610  0.97169567    -0.06690
C1229       C  0.42142992  0.62496514  0.99578706    -0.17930
C1230       C  0.39617443  0.59972199  0.00287347     0.10460
S1231       S  0.37223395  0.66252080  0.92184071    -0.32890
S1232       S  0.40867679  0.57486909  0.53371048    -0.32900
H1233       H  0.39671981  0.54516855  0.52151315     0.28470
H1234       H  0.41076799  0.66416593  0.91297278     0.28460
H1235       H  0.33167316  0.61014738  0.94784432     0.19060
H1236       H  0.44657281  0.62893897  0.50925871     0.19060
C1237       C  0.36462453  0.94956165  0.52573037    -0.06770
C1238       C  0.35768423  0.92952851  0.54972124    -0.17900
C1239       C  0.38334865  0.90460623  0.55772474     0.10430
C1240       C  0.41678900  0.89926751  0.54124525    -0.06690
C1241       C  0.42380738  0.91947853  0.51740611    -0.17930
C1242       C  0.39837674  0.94453727  0.50955434     0.10460
S1243       S  0.37238192  0.88146376  0.58970925    -0.32890
S1244       S  0.41157795  0.96969552  0.97925926    -0.32900
H1245       H  0.39829794  0.99916792  0.99105974     0.28470
H1246       H  0.41039180  0.88122887  0.60029728     0.28460
H1247       H  0.33200100  0.93331345  0.56237673     0.19060
H1248       H  0.44948780  0.91577598  0.50473192     0.19060
C1249       C  0.91740706  0.65260298  0.54547066    -0.06770
C1250       C  0.92471354  0.67411285  0.52257731    -0.17900
C1251       C  0.89948345  0.69972253  0.51583347     0.10430
C1252       C  0.86557326  0.70382141  0.53199770    -0.06690
C1253       C  0.85868613  0.68288894  0.55536745    -0.17930
C1254       C  0.88428441  0.65755236  0.56241933     0.10460
S1255       S  0.91295799  0.72690716  0.98698662    -0.32890
S1256       S  0.87361556  0.63325722  0.59379368    -0.32900
H1257       H  0.91194690  0.63160802  0.60361421     0.28470
H1258       H  0.89931260  0.75547857  0.00035372     0.28460
H1259       H  0.95031828  0.67091555  0.50971549     0.19060
H1260       H  0.83299039  0.68612881  0.56812129     0.19060
C1261       C  0.11372844  0.57192613  0.55618433    -0.06770
C1262       C  0.12978998  0.54191435  0.56508253    -0.17900
C1263       C  0.16857931  0.53466405  0.56099893     0.10430
C1264       C  0.19247999  0.55767966  0.54714923    -0.06690
C1265       C  0.17707011  0.58842360  0.53971268    -0.17930
C1266       C  0.13834381  0.59602169  0.54455722     0.10460
S1267       S  0.18431114  0.99413745  0.57099050    -0.32890
S1268       S  0.12229074  0.63647243  0.53473416    -0.32900
H1269       H  0.10227702  0.64132391  0.56058502     0.28470
H1270       H  0.21491433  0.00572905  0.58807973     0.28460
H1271       H  0.11170198  0.52318656  0.57441090     0.19060
H1272       H  0.19508450  0.60638248  0.52920897     0.19060
C1273       C  0.91489846  0.89594625  0.97417900    -0.06770
C1274       C  0.88752594  0.88680822  0.95341252    -0.17900
C1275       C  0.86158107  0.86130261  0.95859236     0.10430
C1276       C  0.86203735  0.84509000  0.98556861    -0.06690
C1277       C  0.88935526  0.85463363  0.50635421    -0.17930
C1278       C  0.91550440  0.87980182  0.50103722     0.10460
S1279       S  0.82812576  0.85139625  0.93024192    -0.32890
S1280       S  0.94759547  0.89123260  0.52994804    -0.32900
H1281       H  0.94604787  0.92503474  0.52419222     0.28470
H1282       H  0.84192411  0.81913430  0.92771289     0.28460
H1283       H  0.88693101  0.89914041  0.93273188     0.19060
H1284       H  0.89011701  0.84267339  0.52719448     0.19060
C1285       C  0.11146525  0.97710736  0.95770999    -0.06770
C1286       C  0.13469138  0.95060146  0.96640282    -0.17900
C1287       C  0.17463618  0.95393763  0.96942236     0.10430
C1288       C  0.19212173  0.98436193  0.96343407    -0.06690
C1289       C  0.16937161  0.51004177  0.95275323    -0.17930
C1290       C  0.12948542  0.50720022  0.95064753     0.10460
S1291       S  0.20162620  0.91868674  0.98142984    -0.32890
S1292       S  0.10365961  0.54415805  0.94155378    -0.32900
H1293       H  0.08190194  0.54357888  0.96698722     0.28470
H1294       H  0.23588912  0.92760256  0.96756966     0.28460
H1295       H  0.12165221  0.92726590  0.97145538     0.19060
H1296       H  0.18224204  0.53372614  0.94872891     0.19060
C1297       C  0.36202967  0.83283874  0.71287982    -0.06770
C1298       C  0.34720396  0.84436909  0.73885418    -0.17900
C1299       C  0.30934036  0.83776356  0.74683256     0.10430
C1300       C  0.28487743  0.81983715  0.72801519    -0.06690
C1301       C  0.29894991  0.81092068  0.70087867    -0.17930
C1302       C  0.33699051  0.81740139  0.69306086     0.10460
S1303       S  0.29583936  0.85034181  0.78246924    -0.32890
S1304       S  0.35189508  0.80503928  0.65763024    -0.32900
H1305       H  0.37787346  0.83103661  0.65383499     0.28470
H1306       H  0.29319656  0.81787476  0.79249953     0.28460
H1307       H  0.36610656  0.85639572  0.75414618     0.19060
H1308       H  0.28063258  0.79776381  0.68594277     0.19060
C1309       C  0.36019757  0.71825956  0.81116763    -0.06770
C1310       C  0.33955194  0.69609321  0.79406550    -0.17900
C1311       C  0.30008834  0.70021414  0.78911682     0.10430
C1312       C  0.28087291  0.72754361  0.80092556    -0.06690
C1313       C  0.30059077  0.74746537  0.82057521    -0.17930
C1314       C  0.33980516  0.74290550  0.82609048     0.10460
S1315       S  0.27619966  0.67047229  0.76672012    -0.32890
S1316       S  0.36213137  0.76997628  0.85180065    -0.32900
H1317       H  0.38691681  0.74591687  0.86332761     0.28470
H1318       H  0.24000717  0.67422268  0.77966223     0.28460
H1319       H  0.35449045  0.67635925  0.78334331     0.19060
H1320       H  0.28607117  0.76809410  0.83029787     0.19060
C1321       C  0.61294855  0.59755792  0.77581034    -0.06770
C1322       C  0.60711236  0.60569150  0.80486233    -0.17900
C1323       C  0.58028892  0.62956741  0.81285011     0.10430
C1324       C  0.55839344  0.64574674  0.79143098    -0.06690
C1325       C  0.56398811  0.63781627  0.76251598    -0.17930
C1326       C  0.59150091  0.61467987  0.75439091     0.10460
S1327       S  0.57440622  0.63746147  0.85073436    -0.32890
S1328       S  0.59809127  0.60916173  0.71630729    -0.32900
H1329       H  0.63779748  0.61564999  0.71774668     0.28470
H1330       H  0.53467738  0.64370935  0.84923737     0.28460
H1331       H  0.62321914  0.59311399  0.82161457     0.19060
H1332       H  0.54760267  0.65059068  0.74600479     0.19060
C1333       C  0.61440486  0.95145247  0.73350434    -0.06770
C1334       C  0.62225493  0.91949695  0.74296427    -0.17900
C1335       C  0.59650095  0.89392195  0.73761633     0.10430
C1336       C  0.56198706  0.90030729  0.72229835    -0.06690
C1337       C  0.55430538  0.93234022  0.71275951    -0.17930
C1338       C  0.57997313  0.95792842  0.71827798     0.10460
S1339       S  0.60858840  0.85423703  0.75214341    -0.32890
S1340       S  0.56633860  0.99843299  0.70644911    -0.32900
H1341       H  0.58186021  0.51492794  0.73036217     0.28470
H1342       H  0.57116137  0.84726720  0.76162575     0.28460
H1343       H  0.64851497  0.91450348  0.75494382     0.19060
H1344       H  0.52787614  0.93756932  0.70109046     0.19060
C1345       C  0.05987741  0.89646826  0.79275724    -0.06770
C1346       C  0.07277740  0.87643999  0.81536000    -0.17900
C1347       C  0.09760064  0.85004969  0.81034021     0.10430
C1348       C  0.11114283  0.84417072  0.78211449    -0.06690
C1349       C  0.09816392  0.86466901  0.75962041    -0.17930
C1350       C  0.07289020  0.89063647  0.76463920     0.10460
S1351       S  0.10916374  0.82421522  0.84065688    -0.32890
S1352       S  0.05874511  0.91576892  0.73435508    -0.32900
H1353       H  0.05470843  0.94501167  0.74991523     0.28470
H1354       H  0.10008392  0.79510970  0.82600324     0.28460
H1355       H  0.06225577  0.88065337  0.83693876     0.19060
H1356       H  0.10814397  0.86080481  0.73786050     0.19060
C1357       C  0.85992978  0.96768654  0.80725419    -0.06770
C1358       C  0.84026224  0.94693950  0.78824886    -0.17900
C1359       C  0.80107465  0.95146846  0.78235089     0.10430
C1360       C  0.78112924  0.97783638  0.79518915    -0.06690
C1361       C  0.79986972  0.49632871  0.81641002    -0.17930
C1362       C  0.83877443  0.99129497  0.82283130     0.10460
S1363       S  0.77859071  0.92345707  0.75753712    -0.32890
S1364       S  0.85977750  0.51640029  0.85063581    -0.32900
H1365       H  0.88438002  0.49170209  0.86128300     0.28470
H1366       H  0.74202672  0.92531333  0.77020889     0.28460
H1367       H  0.85582310  0.92805110  0.77686691     0.19060
H1368       H  0.78483902  0.51620266  0.82687066     0.19060
C1369       C  0.06366667  0.64939492  0.72302641    -0.06770
C1370       C  0.05700342  0.68128073  0.71274333    -0.17900
C1371       C  0.08250568  0.70678853  0.71893717     0.10430
C1372       C  0.11576294  0.70036554  0.73560791    -0.06690
C1373       C  0.12262763  0.66850148  0.74574071    -0.17930
C1374       C  0.09700098  0.64302647  0.73974049     0.10460
S1375       S  0.06997071  0.74717593  0.70619626    -0.32890
S1376       S  0.10754674  0.60353494  0.75531781    -0.32900
H1377       H  0.06939073  0.59698364  0.76331043     0.28470
H1378       H  0.08297510  0.76370204  0.73091424     0.28460
H1379       H  0.03142769  0.68647655  0.70003420     0.19060
H1380       H  0.14794948  0.66351647  0.75881193     0.19060
C1381       C  0.86410744  0.58047491  0.71451806    -0.06770
C1382       C  0.84095596  0.56795160  0.69224733    -0.17900
C1383       C  0.80143724  0.56310548  0.69592463     0.10430
C1384       C  0.78453433  0.57028648  0.72275014    -0.06690
C1385       C  0.80736974  0.58504159  0.74421730    -0.17930
C1386       C  0.84683674  0.58950537  0.74067368     0.10460
S1387       S  0.77460946  0.54725669  0.66576464    -0.32890
S1388       S  0.87402082  0.60300868  0.77159975    -0.32900
H1389       H  0.90234928  0.57852744  0.76919995     0.28470
H1390       H  0.74148258  0.56593155  0.67141019     0.28460
H1391       H  0.85388307  0.56141480  0.67190015     0.19060
H1392       H  0.79519737  0.59058272  0.76504094     0.19060
loop_ 
_geom_bond_atom_site_label_1 
_geom_bond_atom_site_label_2 
_geom_bond_distance 
_geom_bond_site_symmetry_2 
_ccdc_geom_bond_type 
In1           O3   2.225       .  S
In1           O4   2.256       .  S
In1          O12   2.243   1_655  S
In1           O6   2.228       .  S
In1           O8   2.253       .  S
In1           O9   2.252       .  S
In1          O10   2.231       .  S
In1          O13   2.237       .  S
C2            O8   1.262       .  A
C2           O10   1.257       .  A
C2          C337   1.475       .  S
O3           C11   1.259       .  A
O4           C11   1.264       .  A
C5           O12   1.265       .  A
C5            O6   1.264   1_455  A
C5          C325   1.477       .  S
C7            O9   1.263       .  A
C7           O13   1.258       .  A
C7          C716   1.463       .  S
C11         C102   1.460       .  S
In14         O16   2.226       .  S
In14         O17   2.250       .  S
In14         O25   2.239   1_655  S
In14         O19   2.233       .  S
In14         O21   2.264       .  S
In14         O23   2.219       .  S
In14         O26   2.238       .  S
In14        O718   2.251       .  S
C15          O21   1.264       .  A
C15          O23   1.256       .  A
C15         C313   1.479       .  S
O16          C24   1.260       .  A
O17          C24   1.264       .  A
C18          O25   1.264       .  A
C18          O19   1.264   1_455  A
C18         C301   1.468       .  S
C20          O26   1.259       .  A
C20         O718   1.263       .  A
C20         C703   1.463       .  S
O22        In710   2.251   1_545  S
O22         C716   1.263       .  A
C24          C89   1.460       .  S
In27         O38   2.217       .  S
In27         O32   2.250       .  S
In27         O34   2.248       .  S
In27         O35   2.250       .  S
In27         O39   2.211       .  S
In27        O725   2.223   1_545  S
In27        O726   2.244   1_545  S
In27        O732   2.208   1_545  S
C28          O36   1.261       .  A
C28         O730   1.270       .  A
C28         C316   1.479       .  S
O29        In723   2.223       .  S
O29          C37   1.262       .  A
O30        In723   2.244       .  S
O30          C37   1.266       .  A
C31          O38   1.261       .  A
C31          O32   1.268       .  A
C31         C277   1.489       .  S
C33          O35   1.268       .  A
C33          O39   1.261       .  A
C33         C340   1.485       .  S
O34         C724   1.270   1_545  A
O36        In723   2.208       .  S
C37         C289   1.471       .  S
In40         O42   2.221       .  S
In40         O43   2.254       .  S
In40         O51   2.241       .  S
In40         O45   2.235       .  S
In40         O47   2.263       .  S
In40         O48   2.255       .  S
In40         O49   2.220       .  S
In40         O52   2.239       .  S
C41          O47   1.264       .  A
C41          O49   1.257       .  A
C41         C265   1.480       .  S
O42          C50   1.260       .  A
O43          C50   1.265       .  A
C44          O51   1.264       .  A
C44          O45   1.264       .  A
C44         C280   1.472       .  S
C46          O48   1.264       .  A
C46          O52   1.259       .  A
C46          C59   1.465       .  S
C50         C128   1.460       .  S
In53         O55   2.225       .  S
In53         O56   2.260       .  S
In53         O64   2.245       .  S
In53         O58   2.230       .  S
In53         O60   2.258       .  S
In53         O61   2.253       .  S
In53         O62   2.231       .  S
In53         O65   2.243       .  S
C54          O60   1.262       .  A
C54          O62   1.257       .  A
C54         C253   1.478       .  S
O55          C63   1.259       .  A
O56          C63   1.264       .  A
C57          O64   1.265       .  A
C57          O58   1.264       .  A
C57         C292   1.478       .  S
C59          O61   1.263       .  A
C59          O65   1.258       .  A
C63         C141   1.462       .  S
In66         O68   2.223       .  S
In66         O69   2.244       .  S
In66         O77   2.223       .  S
In66         O71   2.245       .  S
In66         O73   2.254       .  S
In66         O74   2.247       .  S
In66         O75   2.212       .  S
In66         O78   2.208       .  S
C67          O73   1.268       .  A
C67          O75   1.258       .  A
C67         C256   1.487       .  S
O68          C76   1.263       .  A
O69          C76   1.266       .  A
C70          O77   1.262       .  A
C70          O71   1.266       .  A
C70         C328   1.472       .  S
C72          O74   1.269       .  A
C72          O78   1.261       .  A
C72         C268   1.477       .  S
C76         C304   1.487       .  S
In79         O81   2.224       .  S
In79         O82   2.247       .  S
In79         O90   2.236       .  S
In79         O84   2.230       .  S
In79         O86   2.269   1_655  S
In79         O88   2.209   1_655  S
In79         O91   2.235       .  S
In79        O783   2.253       .  S
C80          O86   1.266       .  A
C80          O88   1.255       .  A
C80         C241   1.486       .  S
O81          C89   1.261       .  A
O82          C89   1.265       .  A
C83          O90   1.265       .  A
C83          O84   1.266       .  A
C83         C229   1.474       .  S
C85          O87   1.264       .  A
C85         O787   1.258   1_545  A
C85         C446   1.462       .  S
O87        In775   2.253   1_545  S
O91         C781   1.258       .  A
In92         O94   2.223       .  S
In92         O95   2.253       .  S
In92        O103   2.238       .  S
In92         O97   2.228       .  S
In92         O99   2.262   1_655  S
In92        O100   2.251       .  S
In92        O101   2.219   1_655  S
In92        O104   2.239       .  S
C93          O99   1.263       .  A
C93         O101   1.257       .  A
C93         C217   1.486       .  S
O94         C102   1.260       .  A
O95         C102   1.265       .  A
C96         O103   1.265       .  A
C96          O97   1.265       .  A
C96         C205   1.478       .  S
C98         O100   1.263       .  A
C98         O104   1.258       .  A
C98         C433   1.462   1_554  S
In105       O107   2.229       .  S
In105       O112   2.237       .  S
In105       O114   2.228       .  S
In105       O456   2.242   1_554  S
In105      O1160   2.232   1_544  S
In105       O806   2.237   1_545  S
In105       O461   2.241   1_554  S
In105       O813   2.226   1_544  S
C106        O112   1.264       .  A
C106        O114   1.260       .  A
C106        C220   1.480       .  S
O107        C463   1.262   1_554  A
O108       In453   2.242       .  S
O108        C115   1.265       .  A
C109        O110   1.264       .  A
C109        O464   1.263   1_554  A
C109        C193   1.476       .  S
O110       In801   2.237       .  S
C111        O809   1.266       .  A
C111        O465   1.259       .  A
C111        C244   1.476       .  S
O113       In453   2.241       .  S
O113        C807   1.266   1_545  A
C115        O455   1.262       .  A
C115        C181   1.477       .  S
O116      In1149   2.232       .  S
O116        C457   1.263       .  A
O117       In801   2.226   1_556  S
O117        C459   1.259       .  A
In118       O120   2.225       .  S
In118       O121   2.255       .  S
In118       O129   2.247       .  S
In118       O123   2.222       .  S
In118       O125   2.255       .  S
In118       O126   2.258       .  S
In118       O127   2.232       .  S
In118       O130   2.243       .  S
C119        O125   1.261       .  A
C119        O127   1.256       .  A
C119        C169   1.474       .  S
O120        C128   1.260       .  A
O121        C128   1.264       .  A
C122        O129   1.265       .  A
C122        O123   1.263       .  A
C122        C184   1.476       .  S
C124        O126   1.262       .  A
C124        O130   1.256       .  A
C124        C485   1.464       .  S
In131       O133   2.224       .  S
In131       O134   2.259       .  S
In131       O142   2.242       .  S
In131       O136   2.226       .  S
In131       O138   2.259       .  S
In131       O139   2.253       .  S
In131       O140   2.226       .  S
In131       O143   2.240       .  S
C132        O138   1.263       .  A
C132        O140   1.257       .  A
C132        C157   1.479       .  S
O133        C141   1.259       .  A
O134        C141   1.264       .  A
C135        O142   1.265       .  A
C135        O136   1.264       .  A
C135        C196   1.478       .  S
C137        O139   1.263       .  A
C137        O143   1.258       .  A
C137        C472   1.464   1_554  S
In144       O147   2.238       .  S
In144       O155   2.218       .  S
In144       O152   2.250       .  S
In144       O153   2.207       .  S
In144       O156   2.209       .  S
In144       O494   2.220   1_554  S
In144       O497   2.243   1_554  S
In144       O499   2.250   1_554  S
C145        O151   1.269       .  A
C145        O501   1.259       .  A
C145        C172   1.485       .  S
O146       In492   2.220       .  S
O146        C502   1.264       .  A
O147        C154   1.267       .  A
C148        O149   1.266       .  A
C148        O503   1.264       .  A
C148        C232   1.484       .  S
O149       In492   2.243       .  S
C150        O152   1.269       .  A
C150        O156   1.260       .  A
C150        C160   1.480       .  S
O151       In492   2.250       .  S
O153        C493   1.259   1_554  A
C154        O494   1.264   1_554  A
C154        C208   1.475       .  S
O155        C496   1.264   1_554  A
C157        C158   1.402       .  A
C157        C162   1.416       .  A
C158        C159   1.399       .  A
C158        H167   1.083       .  S
C159        C160   1.416       .  A
C159        S511   1.803       .  S
C160        C161   1.403       .  A
C161        C162   1.399       .  A
C161        H168   1.083       .  S
C162        S164   1.803       .  S
S163        C507   1.803       .  S
S163        H166   1.408       .  S
S164        H165   1.408       .  S
C169        C170   1.398       .  A
C169        C174   1.412       .  A
C170        C171   1.397       .  A
C170        H527   1.084       .  S
C171        C172   1.422       .  A
C171        S523   1.802       .  S
C172        C173   1.406       .  A
C173        C174   1.400       .  A
C173        H180   1.083       .  S
C174        S176   1.804       .  S
S175        C519   1.802   1_554  S
S175        H178   1.408       .  S
S176        H177   1.408       .  S
H179        C518   1.084   1_554  S
C181        C182   1.405       .  A
C181        C186   1.414       .  A
C182        C183   1.401       .  A
C182        H191   1.084       .  S
C183        C184   1.414       .  A
C183        S187   1.803       .  S
C184        C185   1.402       .  A
C185        C186   1.397       .  A
C185        H540   1.085       .  S
C186        S536   1.804       .  S
S187        H190   1.407       .  S
S188        C534   1.804       .  S
S188        H189   1.404       .  S
H192        C533   1.085   1_554  S
C193        C194   1.404       .  A
C193        C198   1.414       .  A
C194        C195   1.400       .  A
C194        H203   1.084       .  S
C195        C196   1.415       .  A
C195        S199   1.803       .  S
C196        C197   1.403       .  A
C197        C198   1.397       .  A
C197        H204   1.084       .  S
C198        S548   1.804   1_554  S
S199        H202   1.407       .  S
S200        C546   1.804       .  S
S200        H201   1.404       .  S
C205        C206   1.403       .  A
C205        C210   1.415       .  A
C206        C207   1.398       .  A
C206        H215   1.084       .  S
C207        C208   1.413       .  A
C207        S559   1.804   1_554  S
C208        C209   1.403       .  A
C209        C210   1.400       .  A
C209        H216   1.084       .  S
C210        S212   1.803       .  S
S211        C555   1.804       .  S
S211        H214   1.408       .  S
S212        H213   1.407       .  S
C217        C218   1.406       .  A
C217        C222   1.415       .  A
C218        C219   1.395       .  A
C218        H227   1.083       .  S
C219        C220   1.413       .  A
C219        S919   1.801   1_545  S
C220        C221   1.406       .  A
C221        C222   1.402       .  A
C221        H228   1.083       .  S
C222        S224   1.800       .  S
S223        C915   1.801       .  S
S223        H226   1.407       .  S
S224        H225   1.408       .  S
C229        C230   1.403       .  A
C229        C582   1.410       .  A
C230        C231   1.402       .  A
C230        H239   1.084       .  S
C231        C232   1.416       .  A
C231        S235   1.799       .  S
C232        C581   1.407       .  A
C233        C234   1.397       .  A
C233        C580   1.407   1_554  A
C233        H240   1.084       .  S
C234        C577   1.410   1_554  A
C234        S236   1.804       .  S
S235        H238   1.408       .  S
S236        H237   1.407       .  S
C241        C242   1.406       .  A
C241        C942   1.420       .  A
C242        C243   1.402       .  A
C242        H251   1.083       .  S
C243        C244   1.413       .  A
C243        S247   1.802       .  S
C244        C941   1.400       .  A
C245        C246   1.395       .  A
C245        C940   1.400   1_545  A
C245        H252   1.084       .  S
C246        C937   1.420   1_545  A
C246        S248   1.803       .  S
S247        H250   1.407       .  S
S248        H249   1.409       .  S
C253        C254   1.399       .  A
C253        C258   1.414       .  A
C254        C255   1.398       .  A
C254        H263   1.084       .  S
C255        C256   1.422       .  A
C255        S259   1.801       .  S
C256        C257   1.405       .  A
C257        C258   1.401       .  A
C257        H264   1.084       .  S
C258        S260   1.804       .  S
S259        H262   1.408       .  S
S260        H261   1.408       .  S
C265        C266   1.402       .  A
C265        C270   1.417       .  A
C266        C267   1.400       .  A
C266        H275   1.083       .  S
C267        C268   1.415       .  A
C267        S271   1.803       .  S
C268        C269   1.402       .  A
C269        C270   1.398       .  A
C269        H276   1.083       .  S
C270        S272   1.804       .  S
S271        H274   1.408       .  S
S272        H273   1.408       .  S
C277        C278   1.408       .  A
C277        C282   1.421       .  A
C278        C279   1.401       .  A
C278        H287   1.083       .  S
C279        C280   1.411       .  A
C279        S283   1.804       .  S
C280        C281   1.398       .  A
C281        C282   1.399       .  A
C281        H288   1.084       .  S
C282        S284   1.801       .  S
S283        H286   1.406       .  S
S284        H285   1.408       .  S
C289        C290   1.402       .  A
C289        C294   1.411       .  A
C290        C291   1.400       .  A
C290        H299   1.085       .  S
C291        C292   1.414       .  A
C291        S295   1.802       .  S
C292        C293   1.405       .  A
C293        C294   1.400       .  A
C293        H300   1.084       .  S
C294        S296   1.804       .  S
S295        H298   1.407       .  S
S296        H993   1.407       .  S
H297        S992   1.407   1_545  S
C301        C302   1.400       .  A
C301        C306   1.407       .  A
C302        C303   1.401       .  A
C302        H311   1.084       .  S
C303        C304   1.418       .  A
C303        S307   1.800       .  S
C304        C305   1.408       .  A
C305        C306   1.398       .  A
C305        H312   1.084       .  S
C306        S308   1.804       .  S
S307        H310   1.408       .  S
S308        H309   1.406       .  S
C313        C314   1.402       .  A
C313        C318   1.416       .  A
C314        C315   1.400       .  A
C314        H323   1.083       .  S
C315        C316   1.416       .  A
C315        S319   1.803       .  S
C316       C1013   1.402       .  A
C317       C1012   1.402       .  A
C317       C1014   1.398       .  A
C317        H324   1.083   1_565  S
C318       C1013   1.398       .  A
C318       S1016   1.804       .  S
S319        H322   1.408       .  S
S320       C1014   1.804   1_545  S
S320        H321   1.408   1_545  S
C325        C326   1.404       .  A
C325        C330   1.414       .  A
C326        C327   1.399       .  A
C326        H335   1.084       .  S
C327        C328   1.411       .  A
C327        S331   1.803       .  S
C328        C329   1.402       .  A
C329        C330   1.399       .  A
C329        H336   1.085       .  S
C330        S332   1.802       .  S
S331        H334   1.407       .  S
S332        H333   1.407       .  S
C337        C338   1.405       .  A
C337        C342   1.410       .  A
C338        C339   1.401       .  A
C338        H347   1.084       .  S
C339        C340   1.414       .  A
C339        S343   1.801       .  S
C340        C341   1.409       .  A
C341        C342   1.396       .  A
C341        H348   1.084       .  S
C342        S344   1.803       .  S
S343        H346   1.407       .  S
S344        H345   1.408       .  S
In349       O351   2.225       .  S
In349       O352   2.256       .  S
In349       O360   2.243   1_655  S
In349       O354   2.228       .  S
In349       O356   2.253       .  S
In349       O357   2.252       .  S
In349       O358   2.231       .  S
In349       O361   2.237       .  S
C350        O356   1.262       .  A
C350        O358   1.257       .  A
C350        C685   1.475       .  S
O351        C359   1.259       .  A
O352        C359   1.264       .  A
C353        O360   1.265       .  A
C353        O354   1.264   1_455  A
C353        C673   1.477       .  S
C355        O357   1.263       .  A
C355        O361   1.258       .  A
C355       C1064   1.463       .  S
C359        C450   1.460       .  S
In362       O364   2.226       .  S
In362       O365   2.250       .  S
In362       O373   2.239   1_655  S
In362       O367   2.233       .  S
In362       O369   2.264       .  S
In362      O1066   2.251       .  S
In362       O371   2.219       .  S
In362       O374   2.238       .  S
C363        O369   1.264       .  A
C363        O371   1.256       .  A
C363        C661   1.479       .  S
O364        C372   1.260       .  A
O365        C372   1.264       .  A
C366        O373   1.264       .  A
C366        O367   1.264   1_455  A
C366        C649   1.468       .  S
C368       O1066   1.263       .  A
C368        O374   1.259       .  A
C368       C1051   1.463       .  S
O370      In1058   2.251   1_545  S
O370       C1064   1.263       .  A
C372        C437   1.460       .  S
In375      O1073   2.223   1_545  S
In375      O1074   2.244   1_545  S
In375       O386   2.217       .  S
In375       O380   2.250       .  S
In375       O382   2.248       .  S
In375       O383   2.250       .  S
In375      O1080   2.208   1_545  S
In375       O387   2.211       .  S
C376       O1078   1.270       .  A
C376        O384   1.261       .  A
C376        C664   1.479       .  S
O377      In1071   2.223       .  S
O377        C385   1.262       .  A
O378      In1071   2.244       .  S
O378        C385   1.266       .  A
C379        O386   1.261       .  A
C379        O380   1.268       .  A
C379        C625   1.489       .  S
C381        O383   1.268       .  A
C381        O387   1.261       .  A
C381        C688   1.485       .  S
O382       C1072   1.270   1_545  A
O384      In1071   2.208       .  S
C385        C637   1.471       .  S
In388       O390   2.221       .  S
In388       O391   2.254       .  S
In388       O399   2.241       .  S
In388       O393   2.235       .  S
In388       O395   2.263       .  S
In388       O396   2.255       .  S
In388       O397   2.220       .  S
In388       O400   2.239       .  S
C389        O395   1.264       .  A
C389        O397   1.257       .  A
C389        C613   1.480       .  S
O390        C398   1.260       .  A
O391        C398   1.265       .  A
C392        O399   1.264       .  A
C392        O393   1.264       .  A
C392        C628   1.472       .  S
C394        O396   1.264       .  A
C394        O400   1.259       .  A
C394        C407   1.465       .  S
C398        C476   1.460       .  S
In401       O403   2.225       .  S
In401       O404   2.260       .  S
In401       O412   2.245       .  S
In401       O406   2.230       .  S
In401       O408   2.258       .  S
In401       O409   2.253       .  S
In401       O410   2.231       .  S
In401       O413   2.243       .  S
C402        O408   1.262       .  A
C402        O410   1.257       .  A
C402        C601   1.478       .  S
O403        C411   1.259       .  A
O404        C411   1.264       .  A
C405        O412   1.265       .  A
C405        O406   1.264       .  A
C405        C640   1.478       .  S
C407        O409   1.263       .  A
C407        O413   1.258       .  A
C411        C489   1.462       .  S
In414       O416   2.223       .  S
In414       O417   2.244       .  S
In414       O425   2.223       .  S
In414       O419   2.245       .  S
In414       O421   2.254       .  S
In414       O422   2.247       .  S
In414       O423   2.212       .  S
In414       O426   2.208       .  S
C415        O421   1.268       .  A
C415        O423   1.258       .  A
C415        C604   1.487       .  S
O416        C424   1.263       .  A
O417        C424   1.266       .  A
C418        O425   1.262       .  A
C418        O419   1.266       .  A
C418        C676   1.472       .  S
C420        O422   1.269       .  A
C420        O426   1.261       .  A
C420        C616   1.477       .  S
C424        C652   1.487       .  S
In427       O429   2.224       .  S
In427       O430   2.247       .  S
In427       O438   2.236       .  S
In427       O432   2.230       .  S
In427       O434   2.269   1_655  S
In427      O1131   2.253       .  S
In427       O436   2.209   1_655  S
In427       O439   2.235   1_556  S
C428        O434   1.266       .  A
C428        O436   1.255       .  A
C428        C589   1.486       .  S
O429        C437   1.261       .  A
O430        C437   1.265       .  A
C431        O438   1.265       .  A
C431        O432   1.266       .  A
C431        C577   1.474       .  S
C433        O435   1.264       .  A
C433       O1135   1.258   1_546  A
O435      In1123   2.253   1_545  S
O439       C1129   1.258   1_554  A
In440       O442   2.223       .  S
In440       O443   2.253       .  S
In440       O451   2.238       .  S
In440       O445   2.228       .  S
In440       O447   2.262   1_655  S
In440       O448   2.251       .  S
In440       O449   2.219   1_655  S
In440       O452   2.239       .  S
C441        O447   1.263       .  A
C441        O449   1.257       .  A
C441        C565   1.486       .  S
O442        C450   1.260       .  A
O443        C450   1.265       .  A
C444        O451   1.265       .  A
C444        O445   1.265       .  A
C444        C553   1.478       .  S
C446        O448   1.263       .  A
C446        O452   1.258       .  A
In453       O455   2.229       .  S
In453       O812   2.232   1_545  S
In453      O1154   2.237   1_545  S
In453       O460   2.237       .  S
In453       O462   2.228       .  S
In453      O1161   2.226   1_545  S
C454        O460   1.264       .  A
C454        O462   1.260       .  A
C454        C568   1.480       .  S
O456        C463   1.265       .  A
C457        O458   1.264       .  A
C457        C541   1.476       .  S
O458      In1149   2.237       .  S
C459       O1157   1.266       .  A
C459        C592   1.476       .  S
O461       C1155   1.266   1_545  A
C463        C529   1.477       .  S
O464       In801   2.232   1_556  S
O465      In1149   2.226       .  S
In466       O468   2.225       .  S
In466       O469   2.255       .  S
In466       O477   2.247       .  S
In466       O471   2.222       .  S
In466       O473   2.255       .  S
In466       O474   2.258       .  S
In466       O475   2.232       .  S
In466       O478   2.243   1_556  S
C467        O473   1.261       .  A
C467        O475   1.256       .  A
C467        C517   1.474       .  S
O468        C476   1.260       .  A
O469        C476   1.264       .  A
C470        O477   1.265       .  A
C470        O471   1.263       .  A
C470        C532   1.476       .  S
C472        O474   1.262       .  A
C472        O478   1.256   1_556  A
In479       O481   2.224       .  S
In479       O482   2.259       .  S
In479       O490   2.242       .  S
In479       O484   2.226       .  S
In479       O486   2.259       .  S
In479       O487   2.253       .  S
In479       O488   2.226       .  S
In479       O491   2.240       .  S
C480        O486   1.263       .  A
C480        O488   1.257       .  A
C480        C505   1.479       .  S
O481        C489   1.259       .  A
O482        C489   1.264       .  A
C483        O490   1.265       .  A
C483        O484   1.264       .  A
C483        C544   1.478       .  S
C485        O487   1.263       .  A
C485        O491   1.258       .  A
In492       O495   2.238       .  S
In492       O503   2.218       .  S
In492       O500   2.250       .  S
In492       O501   2.207       .  S
In492       O504   2.209       .  S
C493        O499   1.269       .  A
C493        C520   1.485       .  S
O495        C502   1.267       .  A
C496        O497   1.266       .  A
C496        C580   1.484       .  S
C498        O500   1.269       .  A
C498        O504   1.260       .  A
C498        C508   1.480       .  S
C502        C556   1.475       .  S
C505        C506   1.402       .  A
C505        C510   1.416       .  A
C506        C507   1.399       .  A
C506        H515   1.083       .  S
C507        C508   1.416       .  A
C508        C509   1.403       .  A
C509        C510   1.399       .  A
C509        H516   1.083       .  S
C510        S512   1.803       .  S
S511        H514   1.408       .  S
S512        H513   1.408       .  S
C517        C518   1.398       .  A
C517        C522   1.412       .  A
C518        C519   1.397       .  A
C519        C520   1.422       .  A
C520        C521   1.406       .  A
C521        C522   1.400       .  A
C521        H528   1.083       .  S
C522        S524   1.804       .  S
S523        H526   1.408       .  S
S524        H525   1.408       .  S
C529        C530   1.405       .  A
C529        C534   1.414   1_556  A
C530        C531   1.401       .  A
C530        H539   1.084       .  S
C531        C532   1.414       .  A
C531        S535   1.803       .  S
C532        C533   1.402       .  A
C533        C534   1.397   1_556  A
S535        H538   1.407       .  S
S536        H537   1.404       .  S
C541        C542   1.404       .  A
C541        C546   1.414       .  A
C542        C543   1.400       .  A
C542        H551   1.084       .  S
C543        C544   1.415       .  A
C543        S547   1.803       .  S
C544        C545   1.403       .  A
C545        C546   1.397       .  A
C545        H552   1.084       .  S
S547        H550   1.407       .  S
S548        H549   1.404       .  S
C553        C554   1.403       .  A
C553        C558   1.415       .  A
C554        C555   1.398       .  A
C554        H563   1.084       .  S
C555        C556   1.413       .  A
C556        C557   1.403       .  A
C557        C558   1.400       .  A
C557        H564   1.084       .  S
C558        S560   1.803       .  S
S559        H562   1.408   1_556  S
S560        H561   1.407       .  S
C565        C566   1.406       .  A
C565        C570   1.415       .  A
C566        C567   1.395       .  A
C566        H575   1.083       .  S
C567        C568   1.413       .  A
C567       S1267   1.801   1_545  S
C568        C569   1.406       .  A
C569        C570   1.402       .  A
C569        H576   1.083       .  S
C570        S572   1.800       .  S
S571       C1263   1.801       .  S
S571        H574   1.407       .  S
S572        H573   1.408       .  S
C577        C578   1.403       .  A
C578        C579   1.402       .  A
C578        H587   1.084       .  S
C579        C580   1.416       .  A
C579        S583   1.799       .  S
C581        C582   1.397       .  A
C581        H588   1.084       .  S
C582        S584   1.804       .  S
S583        H586   1.408       .  S
S584        H585   1.407       .  S
C589        C590   1.406       .  A
C589       C1290   1.420       .  A
C590        C591   1.402       .  A
C590        H599   1.083       .  S
C591        C592   1.413       .  A
C591        S595   1.802       .  S
C592       C1289   1.400       .  A
C593       C1288   1.400   1_545  A
C593        C594   1.395       .  A
C593        H600   1.084       .  S
C594       C1285   1.420   1_545  A
C594        S596   1.803       .  S
S595        H598   1.407       .  S
S596        H597   1.409       .  S
C601        C602   1.399       .  A
C601        C606   1.414       .  A
C602        C603   1.398       .  A
C602        H611   1.084       .  S
C603        C604   1.422       .  A
C603        S607   1.801       .  S
C604        C605   1.405       .  A
C605        C606   1.401       .  A
C605        H612   1.084       .  S
C606        S608   1.804       .  S
S607        H610   1.408       .  S
S608        H609   1.408       .  S
C613        C614   1.402       .  A
C613        C618   1.417       .  A
C614        C615   1.400       .  A
C614        H623   1.083       .  S
C615        C616   1.415       .  A
C615        S619   1.803       .  S
C616        C617   1.402       .  A
C617        C618   1.398       .  A
C617        H624   1.083       .  S
C618        S620   1.804       .  S
S619        H622   1.408       .  S
S620        H621   1.408       .  S
C625        C626   1.408       .  A
C625        C630   1.421       .  A
C626        C627   1.401       .  A
C626        H635   1.083       .  S
C627        C628   1.411       .  A
C627        S631   1.804       .  S
C628        C629   1.398       .  A
C629        C630   1.399       .  A
C629        H636   1.084       .  S
C630        S632   1.801       .  S
S631        H634   1.406       .  S
S632        H633   1.408       .  S
C637        C638   1.402       .  A
C637        C642   1.411       .  A
C638        C639   1.400       .  A
C638        H647   1.085       .  S
C639        C640   1.414       .  A
C639        S643   1.802       .  S
C640        C641   1.405       .  A
C641        C642   1.400       .  A
C641        H648   1.084       .  S
C642        S644   1.804       .  S
S643        H646   1.407       .  S
S644       H1341   1.407       .  S
H645       S1340   1.407   1_545  S
C649        C650   1.400       .  A
C649        C654   1.407       .  A
C650        C651   1.401       .  A
C650        H659   1.084       .  S
C651        C652   1.418       .  A
C651        S655   1.800       .  S
C652        C653   1.408       .  A
C653        C654   1.398       .  A
C653        H660   1.084       .  S
C654        S656   1.804       .  S
S655        H658   1.408       .  S
S656        H657   1.406       .  S
C661        C662   1.402       .  A
C661        C666   1.416       .  A
C662        C663   1.400       .  A
C662        H671   1.083       .  S
C663        C664   1.416       .  A
C663        S667   1.803       .  S
C664       C1361   1.402       .  A
C665       C1360   1.402       .  A
C665       C1362   1.398       .  A
C665        H672   1.083   1_565  S
C666       C1361   1.398       .  A
C666       S1364   1.804       .  S
S667        H670   1.408       .  S
S668       C1362   1.804   1_545  S
S668        H669   1.408   1_545  S
C673        C674   1.404       .  A
C673        C678   1.414       .  A
C674        C675   1.399       .  A
C674        H683   1.084       .  S
C675        C676   1.411       .  A
C675        S679   1.803       .  S
C676        C677   1.402       .  A
C677        C678   1.399       .  A
C677        H684   1.085       .  S
C678        S680   1.802       .  S
S679        H682   1.407       .  S
S680        H681   1.407       .  S
C685        C686   1.405       .  A
C685        C690   1.410       .  A
C686        C687   1.401       .  A
C686        H695   1.084       .  S
C687        C688   1.414       .  A
C687        S691   1.801       .  S
C688        C689   1.409       .  A
C689        C690   1.396       .  A
C689        H696   1.084       .  S
C690        S692   1.803       .  S
S691        H694   1.407       .  S
S692        H693   1.408       .  S
In697       O699   2.225       .  S
In697       O700   2.256       .  S
In697       O708   2.243   1_655  S
In697       O702   2.228       .  S
In697       O704   2.253       .  S
In697       O705   2.252       .  S
In697       O706   2.231       .  S
In697       O709   2.237       .  S
C698        O704   1.262       .  A
C698        O706   1.257       .  A
C698       C1033   1.475       .  S
O699        C707   1.259       .  A
O700        C707   1.264       .  A
C701        O708   1.265       .  A
C701        O702   1.264   1_455  A
C701       C1021   1.477       .  S
C703        O705   1.263       .  A
C703        O709   1.258       .  A
C707        C798   1.460       .  S
In710       O712   2.226       .  S
In710       O713   2.250       .  S
In710       O721   2.239   1_655  S
In710       O715   2.233       .  S
In710       O717   2.264       .  S
In710       O719   2.219       .  S
In710       O722   2.238       .  S
C711        O717   1.264       .  A
C711        O719   1.256       .  A
C711       C1009   1.479       .  S
O712        C720   1.260       .  A
O713        C720   1.264       .  A
C714        O721   1.264       .  A
C714        O715   1.264   1_455  A
C714        C997   1.468       .  S
C716        O722   1.259   1_545  A
C720        C785   1.460       .  S
In723       O734   2.217       .  S
In723       O728   2.250       .  S
In723       O730   2.248       .  S
In723       O731   2.250       .  S
In723       O735   2.211       .  S
C724        O732   1.261       .  A
C724       C1012   1.479       .  S
O725        C733   1.262       .  A
O726        C733   1.266       .  A
C727        O734   1.261       .  A
C727        O728   1.268       .  A
C727        C973   1.489       .  S
C729        O731   1.268       .  A
C729        O735   1.261       .  A
C729       C1036   1.485       .  S
C733        C985   1.471       .  S
In736       O738   2.221       .  S
In736       O739   2.254       .  S
In736       O747   2.241       .  S
In736       O741   2.235       .  S
In736       O743   2.263       .  S
In736       O744   2.255       .  S
In736       O745   2.220       .  S
In736       O748   2.239       .  S
C737        O743   1.264       .  A
C737        O745   1.257       .  A
C737        C961   1.480       .  S
O738        C746   1.260       .  A
O739        C746   1.265       .  A
C740        O747   1.264       .  A
C740        O741   1.264       .  A
C740        C976   1.472       .  S
C742        O744   1.264       .  A
C742        O748   1.259       .  A
C742        C755   1.465       .  S
C746        C824   1.460       .  S
In749       O751   2.225       .  S
In749       O752   2.260       .  S
In749       O760   2.245       .  S
In749       O754   2.230       .  S
In749       O756   2.258       .  S
In749       O757   2.253       .  S
In749       O758   2.231       .  S
In749       O761   2.243       .  S
C750        O756   1.262       .  A
C750        O758   1.257       .  A
C750        C949   1.478       .  S
O751        C759   1.259       .  A
O752        C759   1.264       .  A
C753        O760   1.265       .  A
C753        O754   1.264       .  A
C753        C988   1.478       .  S
C755        O757   1.263       .  A
C755        O761   1.258       .  A
C759        C837   1.462       .  S
In762       O764   2.223       .  S
In762       O765   2.244       .  S
In762       O773   2.223       .  S
In762       O767   2.245       .  S
In762       O769   2.254       .  S
In762       O770   2.247       .  S
In762       O771   2.212       .  S
In762       O774   2.208       .  S
C763        O769   1.268       .  A
C763        O771   1.258       .  A
C763        C952   1.487       .  S
O764        C772   1.263       .  A
O765        C772   1.266       .  A
C766        O773   1.262       .  A
C766        O767   1.266       .  A
C766       C1024   1.472       .  S
C768        O770   1.269       .  A
C768        O774   1.261       .  A
C768        C964   1.477       .  S
C772       C1000   1.487       .  S
In775       O777   2.224       .  S
In775       O778   2.247       .  S
In775       O786   2.236       .  S
In775       O780   2.230       .  S
In775       O782   2.269   1_655  S
In775       O784   2.209   1_655  S
In775       O787   2.235       .  S
C776        O782   1.266       .  A
C776        O784   1.255       .  A
C776        C937   1.486       .  S
O777        C785   1.261       .  A
O778        C785   1.265       .  A
C779        O786   1.265       .  A
C779        O780   1.266       .  A
C779        C925   1.474       .  S
C781        O783   1.264       .  A
C781       C1142   1.462       .  S
In788       O790   2.223       .  S
In788       O791   2.253       .  S
In788       O799   2.238       .  S
In788       O793   2.228       .  S
In788       O795   2.262   1_655  S
In788       O796   2.251       .  S
In788       O797   2.219   1_655  S
In788       O800   2.239       .  S
C789        O795   1.263       .  A
C789        O797   1.257       .  A
C789        C913   1.486       .  S
O790        C798   1.260       .  A
O791        C798   1.265       .  A
C792        O799   1.265       .  A
C792        O793   1.265       .  A
C792        C901   1.478       .  S
C794        O796   1.263       .  A
C794        O800   1.258       .  A
C794       C1129   1.462   1_554  S
In801       O803   2.229       .  S
In801      O1152   2.242   1_554  S
In801       O808   2.237       .  S
In801      O1157   2.241   1_554  S
In801       O810   2.228       .  S
C802        O808   1.264       .  A
C802        O810   1.260       .  A
C802        C916   1.480       .  S
O803       C1159   1.262   1_554  A
O804      In1149   2.242       .  S
O804        C811   1.265       .  A
C805       O1160   1.263   1_554  A
C805        O806   1.264       .  A
C805        C889   1.476       .  S
C807       O1161   1.259       .  A
C807        C940   1.476       .  S
O809      In1149   2.241       .  S
C811       O1151   1.262       .  A
C811        C877   1.477       .  S
O812       C1153   1.263       .  A
O813       C1155   1.259       .  A
In814       O816   2.225       .  S
In814       O817   2.255       .  S
In814       O825   2.247       .  S
In814       O819   2.222       .  S
In814       O821   2.255       .  S
In814       O822   2.258       .  S
In814       O823   2.232       .  S
In814       O826   2.243       .  S
C815        O821   1.261       .  A
C815        O823   1.256       .  A
C815        C865   1.474       .  S
O816        C824   1.260       .  A
O817        C824   1.264       .  A
C818        O825   1.265       .  A
C818        O819   1.263       .  A
C818        C880   1.476       .  S
C820        O822   1.262       .  A
C820        O826   1.256       .  A
C820       C1181   1.464       .  S
In827       O829   2.224       .  S
In827       O830   2.259       .  S
In827       O838   2.242       .  S
In827       O832   2.226       .  S
In827       O834   2.259       .  S
In827       O835   2.253       .  S
In827       O836   2.226       .  S
In827       O839   2.240       .  S
C828        O834   1.263       .  A
C828        O836   1.257       .  A
C828        C853   1.479       .  S
O829        C837   1.259       .  A
O830        C837   1.264       .  A
C831        O838   1.265       .  A
C831        O832   1.264       .  A
C831        C892   1.478       .  S
C833        O835   1.263       .  A
C833        O839   1.258       .  A
C833       C1168   1.464   1_554  S
In840      O1190   2.220   1_554  S
In840       O843   2.238       .  S
In840       O851   2.218       .  S
In840      O1193   2.243   1_554  S
In840      O1195   2.250   1_554  S
In840       O848   2.250       .  S
In840       O849   2.207       .  S
In840       O852   2.209       .  S
C841        O847   1.269       .  A
C841       O1197   1.259       .  A
C841        C868   1.485       .  S
O842      In1188   2.220       .  S
O842       C1198   1.264       .  A
O843        C850   1.267       .  A
C844       O1199   1.264       .  A
C844        O845   1.266       .  A
C844        C928   1.484       .  S
O845      In1188   2.243       .  S
C846        O848   1.269       .  A
C846        O852   1.260       .  A
C846        C856   1.480       .  S
O847      In1188   2.250       .  S
O849       C1189   1.259   1_554  A
C850       O1190   1.264   1_554  A
C850        C904   1.475       .  S
O851       C1192   1.264   1_554  A
C853        C854   1.402       .  A
C853        C858   1.416       .  A
C854        C855   1.399       .  A
C854        H863   1.083       .  S
C855        C856   1.416       .  A
C855       S1207   1.803       .  S
C856        C857   1.403       .  A
C857        C858   1.399       .  A
C857        H864   1.083       .  S
C858        S860   1.803       .  S
S859       C1203   1.803       .  S
S859        H862   1.408       .  S
S860        H861   1.408       .  S
C865        C866   1.398       .  A
C865        C870   1.412       .  A
C866        C867   1.397       .  A
C866       H1223   1.084       .  S
C867        C868   1.422       .  A
C867       S1219   1.802       .  S
C868        C869   1.406       .  A
C869        C870   1.400       .  A
C869        H876   1.083       .  S
C870        S872   1.804       .  S
S871       C1215   1.802   1_554  S
S871        H874   1.408       .  S
S872        H873   1.408       .  S
H875       C1214   1.084   1_554  S
C877        C878   1.405       .  A
C877        C882   1.414       .  A
C878        C879   1.401       .  A
C878        H887   1.084       .  S
C879        C880   1.414       .  A
C879        S883   1.803       .  S
C880        C881   1.402       .  A
C881        C882   1.397       .  A
C881       H1236   1.085       .  S
C882       S1232   1.804       .  S
S883        H886   1.407       .  S
S884       C1230   1.804       .  S
S884        H885   1.404       .  S
H888       C1229   1.085   1_554  S
C889        C890   1.404       .  A
C889        C894   1.414       .  A
C890        C891   1.400       .  A
C890        H899   1.084       .  S
C891        C892   1.415       .  A
C891        S895   1.803       .  S
C892        C893   1.403       .  A
C893        C894   1.397       .  A
C893        H900   1.084       .  S
C894       S1244   1.804   1_554  S
S895        H898   1.407       .  S
S896       C1242   1.804       .  S
S896        H897   1.404       .  S
C901        C902   1.403       .  A
C901        C906   1.415       .  A
C902        C903   1.398       .  A
C902        H911   1.084       .  S
C903        C904   1.413       .  A
C903       S1255   1.804   1_554  S
C904        C905   1.403       .  A
C905        C906   1.400       .  A
C905        H912   1.084       .  S
C906        S908   1.803       .  S
S907       C1251   1.804       .  S
S907        H910   1.408       .  S
S908        H909   1.407       .  S
C913        C914   1.406       .  A
C913        C918   1.415       .  A
C914        C915   1.395       .  A
C914        H923   1.083       .  S
C915        C916   1.413       .  A
C916        C917   1.406       .  A
C917        C918   1.402       .  A
C917        H924   1.083       .  S
C918        S920   1.800       .  S
S919        H922   1.407   1_565  S
S920        H921   1.408       .  S
C925        C926   1.403       .  A
C925       C1278   1.410       .  A
C926        C927   1.402       .  A
C926        H935   1.084       .  S
C927        C928   1.416       .  A
C927        S931   1.799       .  S
C928       C1277   1.407       .  A
C929       C1276   1.407   1_554  A
C929        C930   1.397       .  A
C929        H936   1.084       .  S
C930       C1273   1.410   1_554  A
C930        S932   1.804       .  S
S931        H934   1.408       .  S
S932        H933   1.407       .  S
C937        C938   1.406       .  A
C938        C939   1.402       .  A
C938        H947   1.083       .  S
C939        C940   1.413       .  A
C939        S943   1.802       .  S
C941        C942   1.395       .  A
C941        H948   1.084       .  S
C942        S944   1.803       .  S
S943        H946   1.407       .  S
S944        H945   1.409       .  S
C949        C950   1.399       .  A
C949        C954   1.414       .  A
C950        C951   1.398       .  A
C950        H959   1.084       .  S
C951        C952   1.422       .  A
C951        S955   1.801       .  S
C952        C953   1.405       .  A
C953        C954   1.401       .  A
C953        H960   1.084       .  S
C954        S956   1.804       .  S
S955        H958   1.408       .  S
S956        H957   1.408       .  S
C961        C962   1.402       .  A
C961        C966   1.417       .  A
C962        C963   1.400       .  A
C962        H971   1.083       .  S
C963        C964   1.415       .  A
C963        S967   1.803       .  S
C964        C965   1.402       .  A
C965        C966   1.398       .  A
C965        H972   1.083       .  S
C966        S968   1.804       .  S
S967        H970   1.408       .  S
S968        H969   1.408       .  S
C973        C974   1.408       .  A
C973        C978   1.421       .  A
C974        C975   1.401       .  A
C974        H983   1.083       .  S
C975        C976   1.411       .  A
C975        S979   1.804       .  S
C976        C977   1.398       .  A
C977        C978   1.399       .  A
C977        H984   1.084       .  S
C978        S980   1.801       .  S
S979        H982   1.406       .  S
S980        H981   1.408       .  S
C985        C986   1.402       .  A
C985        C990   1.411       .  A
C986        C987   1.400       .  A
C986        H995   1.085       .  S
C987        C988   1.414       .  A
C987        S991   1.802       .  S
C988        C989   1.405       .  A
C989        C990   1.400       .  A
C989        H996   1.084       .  S
C990        S992   1.804       .  S
S991        H994   1.407       .  S
C997        C998   1.400       .  A
C997       C1002   1.407       .  A
C998        C999   1.401       .  A
C998       H1007   1.084       .  S
C999       C1000   1.418       .  A
C999       S1003   1.800       .  S
C1000      C1001   1.408       .  A
C1001      C1002   1.398       .  A
C1001      H1008   1.084       .  S
C1002      S1004   1.804       .  S
S1003      H1006   1.408       .  S
S1004      H1005   1.406       .  S
C1009      C1010   1.402       .  A
C1009      C1014   1.416       .  A
C1010      C1011   1.400       .  A
C1010      H1019   1.083       .  S
C1011      C1012   1.416       .  A
C1011      S1015   1.803       .  S
C1013      H1020   1.083       .  S
S1015      H1018   1.408       .  S
S1016      H1017   1.408       .  S
C1021      C1022   1.404       .  A
C1021      C1026   1.414       .  A
C1022      C1023   1.399       .  A
C1022      H1031   1.084       .  S
C1023      C1024   1.411       .  A
C1023      S1027   1.803       .  S
C1024      C1025   1.402       .  A
C1025      C1026   1.399       .  A
C1025      H1032   1.085       .  S
C1026      S1028   1.802       .  S
S1027      H1030   1.407       .  S
S1028      H1029   1.407       .  S
C1033      C1034   1.405       .  A
C1033      C1038   1.410       .  A
C1034      C1035   1.401       .  A
C1034      H1043   1.084       .  S
C1035      C1036   1.414       .  A
C1035      S1039   1.801       .  S
C1036      C1037   1.409       .  A
C1037      C1038   1.396       .  A
C1037      H1044   1.084       .  S
C1038      S1040   1.803       .  S
S1039      H1042   1.407       .  S
S1040      H1041   1.408       .  S
In1045     O1047   2.225       .  S
In1045     O1048   2.256       .  S
In1045     O1056   2.243   1_655  S
In1045     O1050   2.228       .  S
In1045     O1052   2.253       .  S
In1045     O1053   2.252       .  S
In1045     O1054   2.231       .  S
In1045     O1057   2.237       .  S
C1046      O1052   1.262       .  A
C1046      O1054   1.257       .  A
C1046      C1381   1.475       .  S
O1047      C1055   1.259       .  A
O1048      C1055   1.264       .  A
C1049      O1056   1.265       .  A
C1049      O1050   1.264   1_455  A
C1049      C1369   1.477       .  S
C1051      O1053   1.263       .  A
C1051      O1057   1.258       .  A
C1055      C1146   1.460       .  S
In1058     O1060   2.226       .  S
In1058     O1061   2.250       .  S
In1058     O1069   2.239   1_655  S
In1058     O1063   2.233       .  S
In1058     O1065   2.264       .  S
In1058     O1067   2.219       .  S
In1058     O1070   2.238       .  S
C1059      O1065   1.264       .  A
C1059      O1067   1.256       .  A
C1059      C1357   1.479       .  S
O1060      C1068   1.260       .  A
O1061      C1068   1.264       .  A
C1062      O1069   1.264       .  A
C1062      O1063   1.264   1_455  A
C1062      C1345   1.468       .  S
C1064      O1070   1.259   1_545  A
C1068      C1133   1.460       .  S
In1071     O1082   2.217       .  S
In1071     O1076   2.250       .  S
In1071     O1078   2.248       .  S
In1071     O1079   2.250       .  S
In1071     O1083   2.211       .  S
C1072      O1080   1.261       .  A
C1072      C1360   1.479       .  S
O1073      C1081   1.262       .  A
O1074      C1081   1.266       .  A
C1075      O1082   1.261       .  A
C1075      O1076   1.268       .  A
C1075      C1321   1.489       .  S
C1077      O1079   1.268       .  A
C1077      O1083   1.261       .  A
C1077      C1384   1.485       .  S
C1081      C1333   1.471       .  S
In1084     O1086   2.221       .  S
In1084     O1087   2.254       .  S
In1084     O1095   2.241       .  S
In1084     O1089   2.235       .  S
In1084     O1091   2.263       .  S
In1084     O1092   2.255       .  S
In1084     O1093   2.220       .  S
In1084     O1096   2.239       .  S
C1085      O1091   1.264       .  A
C1085      O1093   1.257       .  A
C1085      C1309   1.480       .  S
O1086      C1094   1.260       .  A
O1087      C1094   1.265       .  A
C1088      O1095   1.264       .  A
C1088      O1089   1.264       .  A
C1088      C1324   1.472       .  S
C1090      O1092   1.264       .  A
C1090      O1096   1.259       .  A
C1090      C1103   1.465       .  S
C1094      C1172   1.460       .  S
In1097     O1099   2.225       .  S
In1097     O1100   2.260       .  S
In1097     O1108   2.245       .  S
In1097     O1102   2.230       .  S
In1097     O1104   2.258       .  S
In1097     O1105   2.253       .  S
In1097     O1106   2.231       .  S
In1097     O1109   2.243       .  S
C1098      O1104   1.262       .  A
C1098      O1106   1.257       .  A
C1098      C1297   1.478       .  S
O1099      C1107   1.259       .  A
O1100      C1107   1.264       .  A
C1101      O1108   1.265       .  A
C1101      O1102   1.264       .  A
C1101      C1336   1.478       .  S
C1103      O1105   1.263       .  A
C1103      O1109   1.258       .  A
C1107      C1185   1.462       .  S
In1110     O1112   2.223       .  S
In1110     O1113   2.244       .  S
In1110     O1121   2.223       .  S
In1110     O1115   2.245       .  S
In1110     O1117   2.254       .  S
In1110     O1118   2.247       .  S
In1110     O1119   2.212       .  S
In1110     O1122   2.208       .  S
C1111      O1117   1.268       .  A
C1111      O1119   1.258       .  A
C1111      C1300   1.487       .  S
O1112      C1120   1.263       .  A
O1113      C1120   1.266       .  A
C1114      O1121   1.262       .  A
C1114      O1115   1.266       .  A
C1114      C1372   1.472       .  S
C1116      O1118   1.269       .  A
C1116      O1122   1.261       .  A
C1116      C1312   1.477       .  S
C1120      C1348   1.487       .  S
In1123     O1125   2.224       .  S
In1123     O1126   2.247       .  S
In1123     O1134   2.236       .  S
In1123     O1128   2.230       .  S
In1123     O1130   2.269   1_655  S
In1123     O1132   2.209   1_655  S
In1123     O1135   2.235   1_556  S
C1124      O1130   1.266       .  A
C1124      O1132   1.255       .  A
C1124      C1285   1.486       .  S
O1125      C1133   1.261       .  A
O1126      C1133   1.265       .  A
C1127      O1134   1.265       .  A
C1127      O1128   1.266       .  A
C1127      C1273   1.474       .  S
C1129      O1131   1.264       .  A
In1136     O1138   2.223       .  S
In1136     O1139   2.253       .  S
In1136     O1147   2.238       .  S
In1136     O1141   2.228       .  S
In1136     O1143   2.262   1_655  S
In1136     O1144   2.251       .  S
In1136     O1145   2.219   1_655  S
In1136     O1148   2.239       .  S
C1137      O1143   1.263       .  A
C1137      O1145   1.257       .  A
C1137      C1261   1.486       .  S
O1138      C1146   1.260       .  A
O1139      C1146   1.265       .  A
C1140      O1147   1.265       .  A
C1140      O1141   1.265       .  A
C1140      C1249   1.478       .  S
C1142      O1144   1.263       .  A
C1142      O1148   1.258       .  A
In1149     O1151   2.229       .  S
In1149     O1156   2.237       .  S
In1149     O1158   2.228       .  S
C1150      O1156   1.264       .  A
C1150      O1158   1.260       .  A
C1150      C1264   1.480       .  S
O1152      C1159   1.265       .  A
C1153      O1154   1.264       .  A
C1153      C1237   1.476       .  S
C1155      C1288   1.476       .  S
C1159      C1225   1.477       .  S
In1162     O1164   2.225       .  S
In1162     O1165   2.255       .  S
In1162     O1173   2.247       .  S
In1162     O1167   2.222       .  S
In1162     O1169   2.255       .  S
In1162     O1170   2.258       .  S
In1162     O1171   2.232       .  S
In1162     O1174   2.243   1_556  S
C1163      O1169   1.261       .  A
C1163      O1171   1.256       .  A
C1163      C1213   1.474       .  S
O1164      C1172   1.260       .  A
O1165      C1172   1.264       .  A
C1166      O1173   1.265       .  A
C1166      O1167   1.263       .  A
C1166      C1228   1.476       .  S
C1168      O1170   1.262       .  A
C1168      O1174   1.256   1_556  A
In1175     O1177   2.224       .  S
In1175     O1178   2.259       .  S
In1175     O1186   2.242       .  S
In1175     O1180   2.226       .  S
In1175     O1182   2.259       .  S
In1175     O1183   2.253       .  S
In1175     O1184   2.226       .  S
In1175     O1187   2.240       .  S
C1176      O1182   1.263       .  A
C1176      O1184   1.257       .  A
C1176      C1201   1.479       .  S
O1177      C1185   1.259       .  A
O1178      C1185   1.264       .  A
C1179      O1186   1.265       .  A
C1179      O1180   1.264       .  A
C1179      C1240   1.478       .  S
C1181      O1183   1.263       .  A
C1181      O1187   1.258       .  A
In1188     O1191   2.238       .  S
In1188     O1199   2.218       .  S
In1188     O1196   2.250       .  S
In1188     O1197   2.207       .  S
In1188     O1200   2.209       .  S
C1189      O1195   1.269       .  A
C1189      C1216   1.485       .  S
O1191      C1198   1.267       .  A
C1192      O1193   1.266       .  A
C1192      C1276   1.484       .  S
C1194      O1196   1.269       .  A
C1194      O1200   1.260       .  A
C1194      C1204   1.480       .  S
C1198      C1252   1.475       .  S
C1201      C1202   1.402       .  A
C1201      C1206   1.416       .  A
C1202      C1203   1.399       .  A
C1202      H1211   1.083       .  S
C1203      C1204   1.416       .  A
C1204      C1205   1.403       .  A
C1205      C1206   1.399       .  A
C1205      H1212   1.083       .  S
C1206      S1208   1.803       .  S
S1207      H1210   1.408       .  S
S1208      H1209   1.408       .  S
C1213      C1214   1.398       .  A
C1213      C1218   1.412       .  A
C1214      C1215   1.397       .  A
C1215      C1216   1.422       .  A
C1216      C1217   1.406       .  A
C1217      C1218   1.400       .  A
C1217      H1224   1.083       .  S
C1218      S1220   1.804       .  S
S1219      H1222   1.408       .  S
S1220      H1221   1.408       .  S
C1225      C1226   1.405       .  A
C1225      C1230   1.414   1_556  A
C1226      C1227   1.401       .  A
C1226      H1235   1.084       .  S
C1227      C1228   1.414       .  A
C1227      S1231   1.803       .  S
C1228      C1229   1.402       .  A
C1229      C1230   1.397   1_556  A
S1231      H1234   1.407       .  S
S1232      H1233   1.404       .  S
C1237      C1238   1.404       .  A
C1237      C1242   1.414       .  A
C1238      C1239   1.400       .  A
C1238      H1247   1.084       .  S
C1239      C1240   1.415       .  A
C1239      S1243   1.803       .  S
C1240      C1241   1.403       .  A
C1241      C1242   1.397       .  A
C1241      H1248   1.084       .  S
S1243      H1246   1.407       .  S
S1244      H1245   1.404       .  S
C1249      C1250   1.403       .  A
C1249      C1254   1.415       .  A
C1250      C1251   1.398       .  A
C1250      H1259   1.084       .  S
C1251      C1252   1.413       .  A
C1252      C1253   1.403       .  A
C1253      C1254   1.400       .  A
C1253      H1260   1.084       .  S
C1254      S1256   1.803       .  S
S1255      H1258   1.408   1_556  S
S1256      H1257   1.407       .  S
C1261      C1262   1.406       .  A
C1261      C1266   1.415       .  A
C1262      C1263   1.395       .  A
C1262      H1271   1.083       .  S
C1263      C1264   1.413       .  A
C1264      C1265   1.406       .  A
C1265      C1266   1.402       .  A
C1265      H1272   1.083       .  S
C1266      S1268   1.800       .  S
S1267      H1270   1.407   1_565  S
S1268      H1269   1.408       .  S
C1273      C1274   1.403       .  A
C1274      C1275   1.402       .  A
C1274      H1283   1.084       .  S
C1275      C1276   1.416       .  A
C1275      S1279   1.799       .  S
C1277      C1278   1.397       .  A
C1277      H1284   1.084       .  S
C1278      S1280   1.804       .  S
S1279      H1282   1.408       .  S
S1280      H1281   1.407       .  S
C1285      C1286   1.406       .  A
C1286      C1287   1.402       .  A
C1286      H1295   1.083       .  S
C1287      C1288   1.413       .  A
C1287      S1291   1.802       .  S
C1289      C1290   1.395       .  A
C1289      H1296   1.084       .  S
C1290      S1292   1.803       .  S
S1291      H1294   1.407       .  S
S1292      H1293   1.409       .  S
C1297      C1298   1.399       .  A
C1297      C1302   1.414       .  A
C1298      C1299   1.398       .  A
C1298      H1307   1.084       .  S
C1299      C1300   1.422       .  A
C1299      S1303   1.801       .  S
C1300      C1301   1.405       .  A
C1301      C1302   1.401       .  A
C1301      H1308   1.084       .  S
C1302      S1304   1.804       .  S
S1303      H1306   1.408       .  S
S1304      H1305   1.408       .  S
C1309      C1310   1.402       .  A
C1309      C1314   1.417       .  A
C1310      C1311   1.400       .  A
C1310      H1319   1.083       .  S
C1311      C1312   1.415       .  A
C1311      S1315   1.803       .  S
C1312      C1313   1.402       .  A
C1313      C1314   1.398       .  A
C1313      H1320   1.083       .  S
C1314      S1316   1.804       .  S
S1315      H1318   1.408       .  S
S1316      H1317   1.408       .  S
C1321      C1322   1.408       .  A
C1321      C1326   1.421       .  A
C1322      C1323   1.401       .  A
C1322      H1331   1.083       .  S
C1323      C1324   1.411       .  A
C1323      S1327   1.804       .  S
C1324      C1325   1.398       .  A
C1325      C1326   1.399       .  A
C1325      H1332   1.084       .  S
C1326      S1328   1.801       .  S
S1327      H1330   1.406       .  S
S1328      H1329   1.408       .  S
C1333      C1334   1.402       .  A
C1333      C1338   1.411       .  A
C1334      C1335   1.400       .  A
C1334      H1343   1.085       .  S
C1335      C1336   1.414       .  A
C1335      S1339   1.802       .  S
C1336      C1337   1.405       .  A
C1337      C1338   1.400       .  A
C1337      H1344   1.084       .  S
C1338      S1340   1.804       .  S
S1339      H1342   1.407       .  S
C1345      C1346   1.400       .  A
C1345      C1350   1.407       .  A
C1346      C1347   1.401       .  A
C1346      H1355   1.084       .  S
C1347      C1348   1.418       .  A
C1347      S1351   1.800       .  S
C1348      C1349   1.408       .  A
C1349      C1350   1.398       .  A
C1349      H1356   1.084       .  S
C1350      S1352   1.804       .  S
S1351      H1354   1.408       .  S
S1352      H1353   1.406       .  S
C1357      C1358   1.402       .  A
C1357      C1362   1.416       .  A
C1358      C1359   1.400       .  A
C1358      H1367   1.083       .  S
C1359      C1360   1.416       .  A
C1359      S1363   1.803       .  S
C1361      H1368   1.083       .  S
S1363      H1366   1.408       .  S
S1364      H1365   1.408       .  S
C1369      C1370   1.404       .  A
C1369      C1374   1.414       .  A
C1370      C1371   1.399       .  A
C1370      H1379   1.084       .  S
C1371      C1372   1.411       .  A
C1371      S1375   1.803       .  S
C1372      C1373   1.402       .  A
C1373      C1374   1.399       .  A
C1373      H1380   1.085       .  S
C1374      S1376   1.802       .  S
S1375      H1378   1.407       .  S
S1376      H1377   1.407       .  S
C1381      C1382   1.405       .  A
C1381      C1386   1.410       .  A
C1382      C1383   1.401       .  A
C1382      H1391   1.084       .  S
C1383      C1384   1.414       .  A
C1383      S1387   1.801       .  S
C1384      C1385   1.409       .  A
C1385      C1386   1.396       .  A
C1385      H1392   1.084       .  S
C1386      S1388   1.803       .  S
S1387      H1390   1.407       .  S
S1388      H1389   1.408       .  S
