geometry optimzed in LAMMPS
_audit_creation_date              2020-11-30 
_audit_creation_method            'lammps2cif' 
_symmetry_space_group_name_H-M    'P1' 
_symmetry_Int_Tables_number       1 
_symmetry_cell_setting            triclinic 
loop_ 
_symmetry_equiv_pos_as_xyz 
  x,y,z 
_cell_length_a                    26.13548558241613 
_cell_length_b                    29.74525540826968 
_cell_length_c                    44.85419552602298 
_cell_angle_alpha                 93.33398732822411 
_cell_angle_beta                  89.91340649498972 
_cell_angle_gamma                 87.97291791128127 
loop_ 
_atom_site_label 
_atom_site_type_symbol 
_atom_site_fract_x 
_atom_site_fract_y 
_atom_site_fract_z 
_atom_site_charge 
In1        In  0.24539557  0.25769964  0.81802014     1.36870
C2          C  0.24038606  0.31892662  0.77781695     0.78050
O3          O  0.26727848  0.31290369  0.85156823    -0.60400
O4          O  0.32241383  0.26087011  0.83860860    -0.51310
C5          C  0.18774389  0.22432885  0.85951612     0.70710
O6          O  0.16968053  0.25281779  0.84202099    -0.46170
C7          C  0.24980126  0.18777756  0.77924490     0.75420
O8          O  0.20151870  0.31087372  0.79330241    -0.58030
O9          O  0.28928308  0.20110987  0.79282234    -0.48120
O10         O  0.28051953  0.29644463  0.78344771    -0.54460
C11         C  0.31222378  0.29658181  0.85458047     0.85600
O12         O  0.23440483  0.21338270  0.85548172    -0.56350
O13         O  0.20878799  0.20938005  0.78615378    -0.59640
In14       In  0.24703353  0.08237533  0.71659431     1.36870
C15         C  0.25031609  0.15027498  0.75689614     0.78050
O16         O  0.22390133  0.13148186  0.68344707    -0.60400
O17         O  0.17320116  0.07872669  0.69083891    -0.51310
C18         C  0.31493032  0.05137996  0.67568458     0.70710
O19         O  0.32053060  0.08770332  0.69126891    -0.46170
C20         C  0.24099248  0.01907827  0.75528574     0.75420
O21         O  0.29075358  0.13195537  0.74563118    -0.58030
O22         O  0.20131805  0.03554026  0.74338916    -0.48120
O23         O  0.20921766  0.13429099  0.74721811    -0.54460
C24         C  0.18270184  0.11286791  0.67642122     0.85600
O25         O  0.27573866  0.03017873  0.68214175    -0.56350
O26         O  0.28269090  0.03361874  0.74640392    -0.59640
C27         C  0.31669836  0.33372454  0.45816935    -0.02020
C28         C  0.43868964  0.32781879  0.56897801    -0.02020
C29         C  0.44141091  0.00304638  0.95664007    -0.02020
C30         C  0.31490563  0.98611590  0.06712681    -0.02020
In31       In  0.99376595  0.09252029  0.31826773     1.36870
C32         C  0.98865597  0.15567586  0.27953423     0.78050
O33         O  0.01178095  0.14725008  0.35262475    -0.60400
O34         O  0.06677843  0.09303085  0.34405000    -0.51310
C35         C  0.43566420  0.05836180  0.35856489     0.70710
O36         O  0.41894329  0.08967200  0.34278787    -0.46170
C37         C  0.99829019  0.02375843  0.27845352     0.75420
O38         O  0.44902385  0.14450148  0.29318027    -0.58030
O39         O  0.03834381  0.03876092  0.29066603    -0.48120
O40         O  0.02976765  0.13538665  0.28636526    -0.54460
C41         C  0.05401403  0.12869464  0.35946920     0.85600
O42         O  0.48092508  0.04426175  0.35306250    -0.56350
O43         O  0.45696215  0.04365516  0.28683996    -0.59640
In44       In  0.99504914  0.25021296  0.21698589     1.36870
C45         C  0.98875811  0.18960437  0.25728164     0.78050
O46         O  0.03133938  0.19340711  0.18894022    -0.60400
O47         O  0.06623693  0.25727200  0.19054665    -0.51310
C48         C  0.43368613  0.27509441  0.17320415     0.70710
O49         O  0.43240565  0.23640821  0.18344011    -0.46170
C50         C  0.99840725  0.31920049  0.25628208     0.75420
O51         O  0.44898810  0.20472833  0.24459041    -0.58030
O52         O  0.03860495  0.30239813  0.24369691    -0.48120
O53         O  0.03031576  0.20524811  0.24907937    -0.54460
C54         C  0.06585352  0.21727952  0.17929496     0.85600
O55         O  0.46356022  0.30155244  0.18666354    -0.56350
O56         O  0.45725463  0.30108940  0.24836337    -0.59640
C57         C  0.06879578  0.16659136  0.96048838    -0.02020
C58         C  0.18702185  0.15794935  0.07347825    -0.02020
C59         C  0.18648341  0.17081092  0.46068464    -0.02020
C60         C  0.06007186  0.15611684  0.57207442    -0.02020
C61         C  0.17017799  0.14167920  0.51385675    -0.20840
C62         C  0.15609810  0.17098476  0.49132932    -0.08880
C63         C  0.10775318  0.19441479  0.49580829     0.29970
C64         C  0.07945722  0.19212571  0.52230723    -0.20840
C65         C  0.09549667  0.16406874  0.54502754    -0.08900
C66         C  0.14071179  0.13738546  0.53925375     0.29980
F67         F  0.15771329  0.10612186  0.55802522    -0.19420
H68         H  0.20268116  0.11877023  0.51220637     0.18350
H69         H  0.04316892  0.21073826  0.52403843     0.18350
F70         F  0.08584259  0.21821604  0.47391904    -0.19410
C71         C  0.16941180  0.12994586  0.01855858    -0.20840
C72         C  0.15120297  0.15258630  0.04536550    -0.08880
C73         C  0.09985812  0.17008304  0.04442192     0.29970
C74         C  0.07650754  0.17790209  0.01733479    -0.20840
C75         C  0.09790770  0.16053543  0.99014226    -0.08900
C76         C  0.14104046  0.13075128  0.99203172     0.29980
F77         F  0.15846760  0.10566189  0.96762523    -0.19420
H78         H  0.20613724  0.11194325  0.01788065     0.18350
H79         H  0.03960596  0.19553423  0.01810911     0.18350
F80         F  0.06926954  0.17647789  0.06878814    -0.19410
C81         C  0.14760502  0.14220064  0.12558839    -0.20840
C82         C  0.15335856  0.17074816  0.10175003    -0.08880
C83         C  0.13111689  0.21535608  0.10551751     0.29970
C84         C  0.10574732  0.23023321  0.13153522    -0.20840
C85         C  0.09926923  0.20133527  0.15438862    -0.08900
C86         C  0.11966201  0.15699102  0.15129289     0.29980
F87         F  0.11338050  0.12830209  0.17335428    -0.19420
H88         H  0.16445092  0.10854768  0.12481957     0.18350
H89         H  0.08905583  0.26417579  0.13324384     0.18350
F90         F  0.13364368  0.24489109  0.08357239    -0.19410
C91         C  0.14671268  0.19197333  0.40988386    -0.20840
C92         C  0.14598548  0.16630694  0.43550158    -0.08880
C93         C  0.10990825  0.13158819  0.43615159     0.29970
C94         C  0.07986435  0.12077402  0.41139088    -0.20840
C95         C  0.08342689  0.14442781  0.38560485    -0.08900
C96         C  0.11570546  0.18102367  0.38513674     0.29980
F97         F  0.11914202  0.20462612  0.36025912    -0.19420
H98         H  0.17292345  0.21898681  0.40808716     0.18350
H99         H  0.05520873  0.09233438  0.41190956     0.18350
F100        F  0.10786019  0.10441460  0.45940043    -0.19410
C101        C  0.30322706  0.07116928  0.07390442    -0.20840
C102        C  0.27956180  0.02947556  0.07184615    -0.08880
C103        C  0.22498662  0.03069841  0.07199770     0.29970
C104        C  0.19682340  0.07182564  0.07428451    -0.20840
C105        C  0.22072576  0.11362276  0.07598331    -0.08900
C106        C  0.27538820  0.11200668  0.07643104     0.29980
F107        F  0.30393969  0.14915300  0.07882303    -0.19420
H108        H  0.34462406  0.07213520  0.07356659     0.18350
H109        H  0.15544347  0.07107256  0.07340035     0.18350
F110        F  0.19748799  0.99302701  0.06832474    -0.19410
C111        C  0.26293097  0.26370074  0.09328539    -0.20840
C112        C  0.28254140  0.27632907  0.06578684    -0.08880
C113        C  0.27469148  0.24615517  0.04052846     0.29970
C114        C  0.24248373  0.20974706  0.04252308    -0.20840
C115        C  0.22291697  0.19808418  0.07023424    -0.08900
C116        C  0.24038199  0.22297295  0.09589773     0.29980
F117        F  0.23524056  0.20845327  0.12388221    -0.19420
H118        H  0.26852834  0.28410987  0.11370577     0.18350
H119        H  0.23587543  0.18943034  0.02234434     0.18350
F120        F  0.29879306  0.24916146  0.01409927    -0.19410
C121        C  0.40754629  0.25981062  0.12056901    -0.20840
C122        C  0.40491129  0.28796005  0.14660569    -0.08880
C123        C  0.37744946  0.32925450  0.14632960     0.29970
C124        C  0.35016591  0.34087798  0.12086992    -0.20840
C125        C  0.35169355  0.31254202  0.09431383    -0.08900
C126        C  0.38245283  0.27213807  0.09464561     0.29980
F127        F  0.38585595  0.24315030  0.07012916    -0.19420
H128        H  0.42966543  0.22828009  0.12019705     0.18350
H129        H  0.32628344  0.03783445  0.12300470     0.18350
F130        F  0.37493549  0.35746013  0.17123478    -0.19410
C131        C  0.01351696  0.04949149  0.93609321    -0.20840
C132        C  0.47319541  0.04634559  0.95695375    -0.08880
C133        C  0.46326336  0.08417496  0.97685141     0.29970
C134        C  0.49585066  0.12004335  0.97815938    -0.20840
C135        C  0.03598063  0.12379053  0.95736704    -0.08900
C136        C  0.04488923  0.08696902  0.93644391     0.29980
F137        F  0.08523563  0.08534657  0.91734413    -0.19420
H138        H  0.02214365  0.02180173  0.91999145     0.18350
H139        H  0.48690462  0.14702457  0.99467319     0.18350
F140        F  0.42099974  0.08853691  0.99451073    -0.19410
C141        C  0.48227101  0.21089648  0.95390200    -0.20840
C142        C  0.03436923  0.21057403  0.96222905    -0.08880
C143        C  0.05590679  0.25279462  0.96958511     0.29970
C144        C  0.02721507  0.29295914  0.96747480    -0.20840
C145        C  0.47512759  0.29280796  0.95934033    -0.08900
C146        C  0.45247181  0.25053177  0.95487450     0.29980
F147        F  0.40164918  0.24765479  0.94906413    -0.19420
H148        H  0.46367887  0.18076728  0.94584529     0.18630
H149        H  0.04599974  0.32400576  0.97329835     0.18350
F150        F  0.10521962  0.25558504  0.97859255    -0.19410
C151        C  0.40027635  0.99667010  0.03908854    -0.20840
C152        C  0.34667342  0.99248958  0.03821730    -0.08880
C153        C  0.32277890  0.99896905  0.01045574     0.29970
C154        C  0.35178142  0.00005921  0.98412630    -0.20840
C155        C  0.40581711  0.00230403  0.98482955    -0.08900
C156        C  0.42889261  0.00184579  0.01341911     0.29980
F157        F  0.47996976  0.00686932  0.01685951    -0.19420
H158        H  0.42131997  0.99719655  0.05977537     0.18350
H159        H  0.33061472  0.99806213  0.96362418     0.18350
F160        F  0.27091102  0.00095364  0.00836024    -0.19410
C161        C  0.45914375  0.07001550  0.54476333    -0.20840
C162        C  0.47704427  0.03075133  0.55873710    -0.08880
C163        C  0.03048945  0.02897908  0.56331662     0.29970
C164        C  0.05609681  0.06889026  0.56910274    -0.20840
C165        C  0.03331094  0.11098848  0.56259164    -0.08900
C166        C  0.49019023  0.10764957  0.54354447     0.29980
F167        F  0.47613769  0.14101161  0.52549245    -0.19420
H168        H  0.42097791  0.07238421  0.53559689     0.18350
H169        H  0.09414792  0.06603277  0.57811572     0.18350
F170        F  0.05956405  0.99089618  0.55733962    -0.19410
C171        C  0.46990692  0.19885439  0.57400864    -0.20840
C172        C  0.02309934  0.19838265  0.57929675    -0.08880
C173        C  0.04177717  0.24015140  0.59095304     0.29970
C174        C  0.00964717  0.27896866  0.59333804    -0.20840
C175        C  0.46537800  0.28138132  0.57568380    -0.08900
C176        C  0.44324473  0.23918106  0.56847027     0.29980
F177        F  0.39496251  0.23612324  0.55761716    -0.19420
H178        H  0.44829415  0.16880104  0.57288988     0.18350
H179        H  0.02336385  0.30878013  0.60530528     0.18350
F180        F  0.09100027  0.24475241  0.59948853    -0.19410
C181        C  0.26779406  0.12503046  0.47610121    -0.20840
C182        C  0.22473872  0.12834357  0.45713376    -0.08880
C183        C  0.22058988  0.09249552  0.43491712     0.29970
C184        C  0.24760276  0.05183260  0.43739027    -0.20840
C185        C  0.28504099  0.04593765  0.45939879    -0.08900
C186        C  0.29786104  0.08511061  0.47705117     0.29980
F187        F  0.33981887  0.08599626  0.49478156    -0.19420
H188        H  0.27682595  0.15321187  0.49133814     0.18350
H189        H  0.24009418  0.02486560  0.42098507     0.18350
F190        F  0.19388440  0.09638555  0.40928369    -0.19410
C191        C  0.26603690  0.21291093  0.44298098    -0.20840
C192        C  0.21839752  0.21477510  0.45847408    -0.08880
C193        C  0.20270848  0.25792741  0.47127436     0.29970
C194        C  0.23309059  0.29535731  0.46932893    -0.20840
C195        C  0.28110921  0.29280352  0.45497661    -0.08900
C196        C  0.29792290  0.24996580  0.44284926     0.29980
F197        F  0.34539464  0.24340249  0.43077336    -0.19420
H198        H  0.28014448  0.18207834  0.43136996     0.18350
H199        H  0.21909356  0.32664196  0.48044879     0.18350
F200        F  0.15880659  0.26572806  0.48670927    -0.19410
C201        C  0.39368139  0.03617267  0.43599746    -0.20840
C202        C  0.35264599  0.00674954  0.43128215    -0.08880
C203        C  0.33895813  0.99543846  0.40113426     0.29970
C204        C  0.36599717  0.01227533  0.37742163    -0.20840
C205        C  0.40645879  0.04102671  0.38299528    -0.08900
C206        C  0.42053720  0.05242026  0.41236688     0.29980
F207        F  0.45889422  0.08116857  0.41825831    -0.19420
H208        H  0.40406162  0.04828367  0.45828503     0.18350
H209        H  0.35483023  0.00337886  0.35464972     0.18350
F210        F  0.29787583  0.30371863  0.39413448    -0.19410
C211        C  0.32243393  0.33660910  0.51522246    -0.20840
C212        C  0.34638459  0.32580811  0.48744821    -0.08880
C213        C  0.39601262  0.30527762  0.48791524     0.29970
C214        C  0.42333428  0.30396167  0.51459314    -0.20840
C215        C  0.40197604  0.32126469  0.54199749    -0.08900
C216        C  0.34978892  0.33624396  0.54191508     0.29980
F217        F  0.32522062  0.35417800  0.56666749    -0.19420
H218        H  0.28313703  0.34930682  0.51616782     0.18350
H219        H  0.46257961  0.95760542  0.51371616     0.18350
F220        F  0.41914491  0.95393864  0.46266392    -0.19410
C221        C  0.14117427  0.16512932  0.60537904    -0.20840
C222        C  0.09077532  0.14997007  0.60151804    -0.08880
C223        C  0.06859921  0.12963061  0.62597067     0.29970
C224        C  0.09835553  0.11756525  0.65035648    -0.20840
C225        C  0.14978331  0.12897208  0.65228338    -0.08900
C226        C  0.17016206  0.15495055  0.63029328     0.29980
F227        F  0.21898164  0.16901239  0.63207910    -0.19420
H228        H  0.15898674  0.18460917  0.58886613     0.18350
H229        H  0.08113207  0.09926083  0.66775134     0.18350
F230        F  0.01856551  0.11967829  0.62583142    -0.19410
C231        C  0.38304650  0.06619695  0.63883422    -0.20840
C232        C  0.34989597  0.03601788  0.65083592    -0.08880
C233        C  0.34763604  0.99251900  0.63730214     0.29970
C234        C  0.37675633  0.31352543  0.61180659    -0.20840
C235        C  0.40936928  0.01055887  0.59847161    -0.08900
C236        C  0.41206358  0.05414436  0.61314609     0.29980
F237        F  0.44005427  0.08686341  0.60256833    -0.19420
H238        H  0.38512740  0.10019749  0.64871654     0.18350
H239        H  0.37183211  0.28013675  0.60199593     0.18350
F240        F  0.31654454  0.29514905  0.64833447    -0.19410
C241        C  0.18195523  0.20311934  0.91164331    -0.20840
C242        C  0.15831961  0.20631178  0.88395410    -0.08880
C243        C  0.10761558  0.19317851  0.88056051     0.29970
C244        C  0.08127891  0.17690357  0.90477811    -0.20840
C245        C  0.10417445  0.17432401  0.93332624    -0.08900
C246        C  0.15528454  0.18930344  0.93621857     0.29980
F247        F  0.17892896  0.19574432  0.96289079    -0.19420
H248        H  0.22064960  0.21441205  0.91483309     0.18350
H249        H  0.04170836  0.16814753  0.90163221     0.18350
F250        F  0.08353453  0.19609891  0.85392518    -0.19410
C251        C  0.37038659  0.36256689  0.92053022    -0.20840
C252        C  0.41345890  0.33422607  0.92584909    -0.08880
C253        C  0.43068002  0.30499273  0.90133633     0.29970
C254        C  0.39835113  0.29495161  0.87746014    -0.20840
C255        C  0.34968196  0.31571569  0.87609928    -0.08900
C256        C  0.33734191  0.35217618  0.89659299     0.29980
F257        F  0.29240958  0.04272798  0.89455439    -0.19420
H258        H  0.35950630  0.05651320  0.93657753     0.18350
H259        H  0.41089224  0.26941850  0.86055969     0.18350
F260        F  0.47818359  0.28494854  0.90032582    -0.19410
In261      In  0.24539531  0.59103321  0.81802046     1.36870
C262        C  0.24038553  0.65225988  0.77781708     0.78050
O263        O  0.26727797  0.64623747  0.85156853    -0.60400
O264        O  0.32241352  0.59420406  0.83860890    -0.51310
C265        C  0.18774354  0.55766197  0.85951622     0.70710
O266        O  0.16968017  0.58615095  0.84202114    -0.46170
C267        C  0.24980173  0.52111128  0.77924514     0.75420
O268        O  0.20151824  0.64420706  0.79330261    -0.58030
O269        O  0.28928333  0.53444363  0.79282278    -0.48120
O270        O  0.28051909  0.62977806  0.78344791    -0.54460
C271        C  0.31222337  0.62991577  0.85458072     0.85600
O272        O  0.23440456  0.54671603  0.85548191    -0.56350
O273        O  0.20878829  0.54271359  0.78615390    -0.59640
In274      In  0.24703490  0.41570951  0.71659419     1.36870
C275        C  0.25031695  0.48360887  0.75689624     0.78050
O276        O  0.22390307  0.46481613  0.68344687    -0.60400
O277        O  0.17320259  0.41206119  0.69083875    -0.51310
C278        C  0.31493204  0.38471409  0.67568465     0.70710
O279        O  0.32053219  0.42103752  0.69126893    -0.46170
C280        C  0.24099310  0.35241229  0.75528547     0.75420
O281        O  0.29075461  0.46528936  0.74563142    -0.58030
O282        O  0.20131893  0.36887424  0.74338859    -0.48120
O283        O  0.20921866  0.46762496  0.74721793    -0.54460
C284        C  0.18270343  0.44620238  0.67642107     0.85600
O285        O  0.27574034  0.36351288  0.68214177    -0.56350
O286        O  0.28269170  0.36695285  0.74640400    -0.59640
C287        C  0.31669825  0.66705846  0.45816924    -0.02020
C288        C  0.43868938  0.66115201  0.56897786    -0.02020
C289        C  0.44140941  0.33637994  0.95664049    -0.02020
C290        C  0.31490327  0.31944948  0.06712687    -0.02020
In291      In  0.99376682  0.42585257  0.31826757     1.36870
C292        C  0.98865596  0.48900853  0.27953440     0.78050
O293        O  0.01178274  0.48058226  0.35262445    -0.60400
O294        O  0.06677935  0.42636233  0.34404987    -0.51310
C295        C  0.43566531  0.39169408  0.35856480     0.70710
O296        O  0.41894476  0.42300510  0.34278835    -0.46170
C297        C  0.99829033  0.35709119  0.27845295     0.75420
O298        O  0.44902408  0.47783374  0.29318049    -0.58030
O299        O  0.03834421  0.37209357  0.29066524    -0.48120
O300        O  0.02976789  0.46871948  0.28636521    -0.54460
C301        C  0.05401550  0.46202635  0.35946898     0.85600
O302        O  0.48092567  0.37759315  0.35306176    -0.56350
O303        O  0.45696245  0.37698783  0.28683978    -0.59640
In304      In  0.99504764  0.58354594  0.21698624     1.36870
C305        C  0.98875754  0.52293726  0.25728196     0.78050
O306        O  0.03133746  0.52674023  0.18894035    -0.60400
O307        O  0.06623529  0.59060502  0.19054697    -0.51310
C308        C  0.43368474  0.60842706  0.17320443     0.70710
O309        O  0.43240398  0.56974102  0.18344061    -0.46170
C310        C  0.99840587  0.65253379  0.25628212     0.75420
O311        O  0.44898724  0.53806117  0.24459099    -0.58030
O312        O  0.03860352  0.63573123  0.24369701    -0.48120
O313        O  0.03031497  0.53858120  0.24907952    -0.54460
C314        C  0.06585164  0.55061264  0.17929514     0.85600
O315        O  0.46355893  0.63488513  0.18666371    -0.56350
O316        O  0.45725320  0.63442268  0.24836356    -0.59640
C317        C  0.06879488  0.49992452  0.96048825    -0.02020
C318        C  0.18702015  0.49128308  0.07347848    -0.02020
C319        C  0.18648459  0.50414388  0.46068443    -0.02020
C320        C  0.06007305  0.48945069  0.57207440    -0.02020
C321        C  0.17017889  0.47501261  0.51385668    -0.20840
C322        C  0.15609912  0.50431786  0.49132908    -0.08880
C323        C  0.10775394  0.52774762  0.49580792     0.29970
C324        C  0.07945818  0.52545898  0.52230696    -0.20840
C325        C  0.09549775  0.49740240  0.54502744    -0.08900
C326        C  0.14071280  0.47071901  0.53925369     0.29980
F327        F  0.15771415  0.43945544  0.55802524    -0.19420
H328        H  0.20268262  0.45210311  0.51220628     0.18350
H329        H  0.04316972  0.54407142  0.52403806     0.18350
F330        F  0.08584259  0.55154765  0.47391832    -0.19410
C331        C  0.16941045  0.46327949  0.01855879    -0.20840
C332        C  0.15120152  0.48592019  0.04536561    -0.08880
C333        C  0.09985668  0.50341693  0.04442186     0.29970
C334        C  0.07650626  0.51123570  0.01733466    -0.20840
C335        C  0.09790654  0.49386875  0.99014222    -0.08900
C336        C  0.14103921  0.46408458  0.99203189     0.29980
F337        F  0.15846639  0.43899488  0.96762554    -0.19420
H338        H  0.20613581  0.44527675  0.01788099     0.18350
H339        H  0.03960470  0.52886788  0.01810884     0.18350
F340        F  0.06926790  0.50981196  0.06878799    -0.19410
C341        C  0.14760298  0.47553405  0.12558842    -0.20840
C342        C  0.15335666  0.50408174  0.10175017    -0.08880
C343        C  0.13111487  0.54868960  0.10551769     0.29970
C344        C  0.10574521  0.56356658  0.13153539    -0.20840
C345        C  0.09926717  0.53466851  0.15438873    -0.08900
C346        C  0.11965989  0.49032426  0.15129290     0.29980
F347        F  0.11337828  0.46163520  0.17335420    -0.19420
H348        H  0.16444883  0.44188107  0.12481954     0.18350
H349        H  0.08905370  0.59750915  0.13324408     0.18350
F350        F  0.13364181  0.57822474  0.08357265    -0.19410
C351        C  0.14671360  0.52530580  0.40988362    -0.20840
C352        C  0.14598682  0.49963938  0.43550132    -0.08880
C353        C  0.10991024  0.46492011  0.43615130     0.29970
C354        C  0.07986654  0.45410553  0.41139055    -0.20840
C355        C  0.08342861  0.47775946  0.38560455    -0.08900
C356        C  0.11570652  0.51435580  0.38513650     0.29980
F357        F  0.11914253  0.53795844  0.36025893    -0.19420
H358        H  0.17292395  0.55231961  0.40808695     0.18350
H359        H  0.05521125  0.42566564  0.41190925     0.18350
F360        F  0.10786259  0.43774656  0.45940018    -0.19410
C361        C  0.30322492  0.40450279  0.07390521    -0.20840
C362        C  0.27955954  0.36280914  0.07184633    -0.08880
C363        C  0.22498437  0.36403206  0.07199747     0.29970
C364        C  0.19682125  0.40515932  0.07428435    -0.20840
C365        C  0.22072375  0.44695638  0.07598366    -0.08900
C366        C  0.27538613  0.44534021  0.07643212     0.29980
F367        F  0.30393758  0.48248648  0.07882534    -0.19420
H368        H  0.34462194  0.40546863  0.07356780     0.18350
H369        H  0.15544134  0.40440635  0.07339982     0.18350
F370        F  0.19748571  0.32636074  0.06832401    -0.19410
C371        C  0.26292935  0.59703477  0.09328530    -0.20840
C372        C  0.28254104  0.60966197  0.06578681    -0.08880
C373        C  0.27469230  0.57948714  0.04052877     0.29970
C374        C  0.24248414  0.54307930  0.04252346    -0.20840
C375        C  0.22291554  0.53141780  0.07023452    -0.08900
C376        C  0.24037961  0.55630739  0.09589793     0.29980
F377        F  0.23523710  0.54178873  0.12388261    -0.19420
H378        H  0.26852628  0.61744451  0.11370548     0.18350
H379        H  0.23587698  0.52276166  0.02234497     0.18350
F380        F  0.29879574  0.58249220  0.01410002    -0.19410
C381        C  0.40754530  0.59314295  0.12056924    -0.20840
C382        C  0.40491015  0.62129252  0.14660586    -0.08880
C383        C  0.37744866  0.66258709  0.14632957     0.29970
C384        C  0.35016555  0.67421060  0.12086976    -0.20840
C385        C  0.35169331  0.64587450  0.09431373    -0.08900
C386        C  0.38245228  0.60547041  0.09464569     0.29980
F387        F  0.38585553  0.57648255  0.07012930    -0.19420
H388        H  0.42966425  0.56161233  0.12019744     0.18350
H389        H  0.32628022  0.37116697  0.12300524     0.18350
F390        F  0.37493461  0.69079287  0.17123468    -0.19410
C391        C  0.01351567  0.38282466  0.93609352    -0.20840
C392        C  0.47319399  0.37967909  0.95695402    -0.08880
C393        C  0.46326192  0.41750868  0.97685148     0.29970
C394        C  0.49584927  0.45337705  0.97815928    -0.20840
C395        C  0.03597945  0.45712385  0.95736702    -0.08900
C396        C  0.04488805  0.42030210  0.93644408     0.29980
F397        F  0.08523454  0.41867935  0.91734435    -0.19420
H398        H  0.02214236  0.35513471  0.91999191     0.18350
H399        H  0.48690319  0.48035848  0.99467293     0.18350
F400        F  0.42099828  0.42187084  0.99451077    -0.19410
C401        C  0.48227052  0.54423000  0.95390148    -0.20840
C402        C  0.03436864  0.54390733  0.96222872    -0.08880
C403        C  0.05590640  0.58612780  0.96958487     0.29970
C404        C  0.02721490  0.62629242  0.96747462    -0.20840
C405        C  0.47512747  0.62614148  0.95934005    -0.08900
C406        C  0.45247153  0.58386539  0.95487395     0.29980
F407        F  0.40164893  0.58098863  0.94906343    -0.19420
H408        H  0.46367831  0.51410086  0.94584469     0.18630
H409        H  0.04599969  0.65733892  0.97329834     0.18350
F410        F  0.10521920  0.58891801  0.97859240    -0.19410
C411        C  0.40027416  0.33000411  0.03908887    -0.20840
C412        C  0.34667126  0.32582348  0.03821748    -0.08880
C413        C  0.32277695  0.33230313  0.01045588     0.29970
C414        C  0.35177968  0.33339319  0.98412651    -0.20840
C415        C  0.40581538  0.33563788  0.98482990    -0.08900
C416        C  0.42889063  0.33517980  0.01341952     0.29980
F417        F  0.47996773  0.34020342  0.01686007    -0.19420
H418        H  0.42131759  0.33053059  0.05977577     0.18350
H419        H  0.33061312  0.33139613  0.96362435     0.18350
F420        F  0.27090909  0.33428788  0.00836026    -0.19410
C421        C  0.45914608  0.40334838  0.54476318    -0.20840
C422        C  0.47704633  0.36408450  0.55873739    -0.08880
C423        C  0.03049132  0.36231268  0.56331769     0.29970
C424        C  0.05609827  0.40222409  0.56910376    -0.20840
C425        C  0.03331251  0.44432203  0.56259195    -0.08900
C426        C  0.49019242  0.44098254  0.54354435     0.29980
F427        F  0.47614016  0.47434425  0.52549200    -0.19420
H428        H  0.42098052  0.40571683  0.53559634     0.18350
H429        H  0.09414919  0.39936695  0.57811709     0.18350
F430        F  0.05956645  0.32422998  0.55734107    -0.19410
C431        C  0.46990779  0.53218773  0.57400804    -0.20840
C432        C  0.02310013  0.53171629  0.57929648    -0.08880
C433        C  0.04177751  0.57348513  0.59095289     0.29970
C434        C  0.00964717  0.61230218  0.59333789    -0.20840
C435        C  0.46537811  0.61471466  0.57568355    -0.08900
C436        C  0.44324530  0.57251430  0.56846976     0.29980
F437        F  0.39496316  0.56945626  0.55761657    -0.19420
H438        H  0.44829527  0.50213424  0.57288902     0.18350
H439        H  0.02336351  0.64211369  0.60530525     0.18350
F440        F  0.09100049  0.57808640  0.59948858    -0.19410
C441        C  0.26779514  0.45836354  0.47610150    -0.20840
C442        C  0.22474019  0.46167666  0.45713373    -0.08880
C443        C  0.22059208  0.42582881  0.43491688     0.29970
C444        C  0.24760501  0.38516592  0.43739010    -0.20840
C445        C  0.28504264  0.37927086  0.45939896    -0.08900
C446        C  0.29786217  0.41844372  0.47705159     0.29980
F447        F  0.33981963  0.41932938  0.49478228    -0.19420
H448        H  0.27682664  0.48654487  0.49133853     0.18350
H449        H  0.24009695  0.35819905  0.42098471     0.18350
F450        F  0.19388732  0.42971906  0.40928321    -0.19410
C451        C  0.26603882  0.54624405  0.44298171    -0.20840
C452        C  0.21839842  0.54810826  0.45847375    -0.08880
C453        C  0.20270788  0.59126095  0.47127279     0.29970
C454        C  0.23308982  0.62869103  0.46932760    -0.20840
C455        C  0.28110942  0.62613720  0.45497639    -0.08900
C456        C  0.29792429  0.58329926  0.44285001     0.29980
F457        F  0.34539666  0.57673616  0.43077495    -0.19420
H458        H  0.28014754  0.51541131  0.43137137     0.18350
H459        H  0.21909179  0.65997584  0.48044682     0.18350
F460        F  0.15880453  0.59906183  0.48670620    -0.19410
C461        C  0.39368243  0.36950618  0.43599752    -0.20840
C462        C  0.35264750  0.34008249  0.43128239    -0.08880
C463        C  0.33896011  0.32877045  0.40113455     0.29970
C464        C  0.36599914  0.34560700  0.37742182    -0.20840
C465        C  0.40646015  0.37435910  0.38299530    -0.08900
C466        C  0.42053814  0.38575357  0.41236684     0.29980
F467        F  0.45889468  0.41450247  0.41825806    -0.19420
H468        H  0.40406230  0.38161776  0.45828503     0.18350
H469        H  0.35483255  0.33670985  0.35464994     0.18350
F470        F  0.29787694  0.63705059  0.39413453    -0.19410
C471        C  0.32243366  0.66994162  0.51522224    -0.20840
C472        C  0.34638474  0.65914190  0.48744796    -0.08880
C473        C  0.39601329  0.63861240  0.48791486     0.29970
C474        C  0.42333466  0.63729589  0.51459282    -0.20840
C475        C  0.40197594  0.65459790  0.54199728    -0.08900
C476        C  0.34978853  0.66957632  0.54191490     0.29980
F477        F  0.32521970  0.68750927  0.56666743    -0.19420
H478        H  0.28313642  0.68263851  0.51616759     0.18350
H479        H  0.46258158  0.29093928  0.51371635     0.18350
F480        F  0.41914702  0.28727257  0.46266411    -0.19410
C481        C  0.14117570  0.49846356  0.60537884    -0.20840
C482        C  0.09077660  0.48330455  0.60151807    -0.08880
C483        C  0.06860040  0.46296576  0.62597094     0.29970
C484        C  0.09835683  0.45090045  0.65035671    -0.20840
C485        C  0.14978481  0.46230674  0.65228332    -0.08900
C486        C  0.17016364  0.48828482  0.63029303     0.29980
F487        F  0.21898341  0.50234622  0.63207861    -0.19420
H488        H  0.15898814  0.51794316  0.58886578     0.18350
H489        H  0.08113332  0.43259643  0.66775176     0.18350
F490        F  0.01856654  0.45301391  0.62583190    -0.19410
C491        C  0.38304835  0.39953084  0.63883426    -0.20840
C492        C  0.34989786  0.36935186  0.65083610    -0.08880
C493        C  0.34763807  0.32585283  0.63730254     0.29970
C494        C  0.37675627  0.64685813  0.61180645    -0.20840
C495        C  0.40937117  0.34389240  0.59847186    -0.08900
C496        C  0.41206548  0.38747801  0.61314618     0.29980
F497        F  0.44005626  0.42019693  0.60256829    -0.19420
H498        H  0.38512919  0.43353147  0.64871645     0.18350
H499        H  0.37183243  0.61346938  0.60199579     0.18350
F500        F  0.31654449  0.62848146  0.64833429    -0.19410
C501        C  0.18195471  0.53645210  0.91164333    -0.20840
C502        C  0.15831920  0.53964465  0.88395410    -0.08880
C503        C  0.10761520  0.52651132  0.88056042     0.29970
C504        C  0.08127842  0.51023633  0.90477795    -0.20840
C505        C  0.10417378  0.50765684  0.93332614    -0.08900
C506        C  0.15528390  0.52263618  0.93621854     0.29980
F507        F  0.17892824  0.52907705  0.96289078    -0.19420
H508        H  0.22064907  0.54774481  0.91483318     0.18350
H509        H  0.04170787  0.50148031  0.90163199     0.18350
F510        F  0.08353426  0.52943179  0.85392505    -0.19410
C511        C  0.37038635  0.69590083  0.92053046    -0.20840
C512        C  0.41345893  0.66756019  0.92584907    -0.08880
C513        C  0.43068005  0.63832719  0.90133614     0.29970
C514        C  0.39835101  0.62828611  0.87746002    -0.20840
C515        C  0.34968162  0.64904986  0.87609942    -0.08900
C516        C  0.33734149  0.68551012  0.89659330     0.29980
F517        F  0.29240882  0.37606187  0.89455426    -0.19420
H518        H  0.35950522  0.38984689  0.93657760     0.18350
H519        H  0.41089214  0.60275320  0.86055944     0.18350
F520        F  0.47818365  0.61828308  0.90032548    -0.19410
In521      In  0.24539643  0.92436560  0.81802035     1.36870
C522        C  0.24038596  0.98559263  0.77781725     0.78050
O523        O  0.26727924  0.97956970  0.85156842    -0.60400
O524        O  0.32241487  0.92753647  0.83860854    -0.51310
C525        C  0.18774518  0.89099408  0.85951623     0.70710
O526        O  0.16968160  0.91948311  0.84202124    -0.46170
C527        C  0.24980225  0.85444388  0.77924487     0.75420
O528        O  0.20151892  0.97753965  0.79330295    -0.58030
O529        O  0.28928408  0.86777612  0.79282234    -0.48120
O530        O  0.28051963  0.96311073  0.78344776    -0.54460
C531        C  0.31222471  0.96324809  0.85458045     0.85600
O532        O  0.23440619  0.88004823  0.85548178    -0.56350
O533        O  0.20878894  0.87604622  0.78615387    -0.59640
In534      In  0.24703425  0.74904221  0.71659394     1.36870
C535        C  0.25031705  0.81694153  0.75689596     0.78050
O536        O  0.22390232  0.79814912  0.68344681    -0.60400
O537        O  0.17320181  0.74539418  0.69083858    -0.51310
C538        C  0.31493130  0.71804665  0.67568440     0.70710
O539        O  0.32053145  0.75437008  0.69126868    -0.46170
C540        C  0.24099247  0.68574529  0.75528542     0.75420
O541        O  0.29075451  0.79862193  0.74563095    -0.58030
O542        O  0.20131827  0.70220724  0.74338858    -0.48120
O543        O  0.20921858  0.80095775  0.74721784    -0.54460
C544        C  0.18270259  0.77953551  0.67642103     0.85600
O545        O  0.27573954  0.69684547  0.68214148    -0.56350
O546        O  0.28269106  0.70028563  0.74640376    -0.59640
C547        C  0.31669682  0.00039139  0.45816907    -0.02020
C548        C  0.43868784  0.99448547  0.56897775    -0.02020
C549        C  0.44140952  0.66971362  0.95664044    -0.02020
C550        C  0.31490333  0.65278206  0.06712667    -0.02020
In551      In  0.99376624  0.75918618  0.31826730     1.36870
C552        C  0.98865683  0.82234213  0.27953409     0.78050
O553        O  0.01178247  0.81391577  0.35262417    -0.60400
O554        O  0.06677819  0.75969497  0.34405015    -0.51310
C555        C  0.43566419  0.72502812  0.35856436     0.70710
O556        O  0.41894439  0.75634005  0.34278843    -0.46170
C557        C  0.99828918  0.69042474  0.27845279     0.75420
O558        O  0.44902451  0.81116747  0.29317982    -0.58030
O559        O  0.03834318  0.70542687  0.29066509    -0.48120
O560        O  0.02976846  0.80205287  0.28636520    -0.54460
C561        C  0.05401468  0.79535926  0.35946907     0.85600
O562        O  0.48092397  0.71092605  0.35306084    -0.56350
O563        O  0.45696143  0.71032181  0.28683945    -0.59640
In564      In  0.99505039  0.91688020  0.21698642     1.36870
C565        C  0.98875917  0.85627102  0.25728176     0.78050
O566        O  0.03134049  0.86007463  0.18894055    -0.60400
O567        O  0.06623869  0.92393926  0.19054766    -0.51310
C568        C  0.43368821  0.94176185  0.17320436     0.70710
O569        O  0.43240708  0.90307580  0.18344050    -0.46170
C570        C  0.99840759  0.98586760  0.25628274     0.75420
O571        O  0.44898926  0.87139512  0.24459050    -0.58030
O572        O  0.03860557  0.96906533  0.24369784    -0.48120
O573        O  0.03031687  0.87191501  0.24907977    -0.54460
C574        C  0.06585500  0.88394698  0.17929565     0.85600
O575        O  0.46356252  0.96821970  0.18666374    -0.56350
O576        O  0.45725517  0.96775642  0.24836377    -0.59640
C577        C  0.06879648  0.83325742  0.96048843    -0.02020
C578        C  0.18702247  0.82461697  0.07347862    -0.02020
C579        C  0.18648331  0.83747701  0.46068470    -0.02020
C580        C  0.06007187  0.82278444  0.57207467    -0.02020
C581        C  0.17017733  0.80834531  0.51385675    -0.20840
C582        C  0.15609768  0.83765073  0.49132923    -0.08880
C583        C  0.10775283  0.86108091  0.49580808     0.29970
C584        C  0.07945705  0.85879249  0.52230715    -0.20840
C585        C  0.09549658  0.83073595  0.54502769    -0.08900
C586        C  0.14071147  0.80405233  0.53925395     0.29980
F587        F  0.15771299  0.77278907  0.55802566    -0.19420
H588        H  0.20268032  0.78543568  0.51220625     0.18350
H589        H  0.04316886  0.87740526  0.52403831     0.18350
F590        F  0.08584252  0.88488207  0.47391870    -0.19410
C591        C  0.16941193  0.79661295  0.01855914    -0.20840
C592        C  0.15120357  0.81925446  0.04536583    -0.08880
C593        C  0.09985913  0.83675224  0.04442203     0.29970
C594        C  0.07650842  0.84457018  0.01733477    -0.20840
C595        C  0.09790813  0.82720207  0.99014246    -0.08900
C596        C  0.14104043  0.79741758  0.99203233     0.29980
F597        F  0.15846712  0.77232714  0.96762618    -0.19420
H598        H  0.20613710  0.77860990  0.01788134     0.18350
H599        H  0.03960706  0.86220270  0.01810885     0.18350
F600        F  0.06927085  0.84314920  0.06878824    -0.19410
C601        C  0.14760524  0.80886803  0.12558857    -0.20840
C602        C  0.15335945  0.83741593  0.10175049    -0.08880
C603        C  0.13111887  0.88202419  0.10551840     0.29970
C604        C  0.10574965  0.89690125  0.13153624    -0.20840
C605        C  0.09927079  0.86800290  0.15438933    -0.08900
C606        C  0.11966254  0.82365835  0.15129318     0.29980
F607        F  0.11338023  0.79496901  0.17335424    -0.19420
H608        H  0.16445027  0.77521476  0.12481945     0.18350
H609        H  0.08905891  0.93084409  0.13324517     0.18350
F610        F  0.13364628  0.91155960  0.08357354    -0.19410
C611        C  0.14671153  0.85863933  0.40988415    -0.20840
C612        C  0.14598558  0.83297228  0.43550158    -0.08880
C613        C  0.10990967  0.79825245  0.43615136     0.29970
C614        C  0.07986616  0.78743773  0.41139054    -0.20840
C615        C  0.08342764  0.81109222  0.38560474    -0.08900
C616        C  0.11570458  0.84768926  0.38513700     0.29980
F617        F  0.11913982  0.87129255  0.36025968    -0.19420
H618        H  0.17292108  0.88565379  0.40808772     0.18350
H619        H  0.05521134  0.75899748  0.41190907     0.18350
F620        F  0.10786251  0.77107862  0.45940011    -0.19410
C621        C  0.30322614  0.73783544  0.07390473    -0.20840
C622        C  0.27956015  0.69614207  0.07184595    -0.08880
C623        C  0.22498498  0.69736559  0.07199712     0.29970
C624        C  0.19682245  0.73849313  0.07428433    -0.20840
C625        C  0.22072556  0.78028992  0.07598363    -0.08900
C626        C  0.27538796  0.77867315  0.07643166     0.29980
F627        F  0.30394006  0.81581904  0.07882432    -0.19420
H628        H  0.34462318  0.73880082  0.07356718     0.18350
H629        H  0.15544251  0.73774061  0.07339992     0.18350
F630        F  0.19748578  0.65969463  0.06832330    -0.19410
C631        C  0.26293353  0.93036730  0.09328565    -0.20840
C632        C  0.28254382  0.94299545  0.06578702    -0.08880
C633        C  0.27469374  0.91282140  0.04052873     0.29970
C634        C  0.24248552  0.87641363  0.04252344    -0.20840
C635        C  0.22291835  0.86475126  0.07023461    -0.08900
C636        C  0.24038382  0.88963984  0.09589806     0.29980
F637        F  0.23524214  0.87512031  0.12388257    -0.19420
H638        H  0.26853125  0.95077641  0.11370600     0.18350
H639        H  0.23587701  0.85609679  0.02234477     0.18350
F640        F  0.29879563  0.91582723  0.01409959    -0.19410
C641        C  0.40754863  0.92647764  0.12056922    -0.20840
C642        C  0.40491380  0.95462745  0.14660574    -0.08880
C643        C  0.37745238  0.99592207  0.14632935     0.29970
C644        C  0.35016882  0.00754526  0.12086960    -0.20840
C645        C  0.35169609  0.97920880  0.09431373    -0.08900
C646        C  0.38245524  0.93880481  0.09464573     0.29980
F647        F  0.38585822  0.90981669  0.07012946    -0.19420
H648        H  0.42966754  0.89494700  0.12019747     0.18350
H649        H  0.32628007  0.70449971  0.12300495     0.18350
F650        F  0.37493877  0.02412815  0.17123432    -0.19410
C651        C  0.01351608  0.71615807  0.93609358    -0.20840
C652        C  0.47319449  0.71301259  0.95695415    -0.08880
C653        C  0.46326317  0.75084195  0.97685193     0.29970
C654        C  0.49585104  0.78671002  0.97815984    -0.20840
C655        C  0.03598097  0.79045677  0.95736740    -0.08900
C656        C  0.04488896  0.75363517  0.93644427     0.29980
F657        F  0.08523533  0.75201219  0.91734444    -0.19420
H658        H  0.02214237  0.68846825  0.91999181     0.18350
H659        H  0.48690555  0.81369135  0.99467368     0.18350
F660        F  0.42099979  0.75520416  0.99451143    -0.19410
C661        C  0.48227205  0.87756281  0.95390166    -0.20840
C662        C  0.03437028  0.87724027  0.96222863    -0.08880
C663        C  0.05590819  0.91946084  0.96958429     0.29970
C664        C  0.02721663  0.95962543  0.96747393    -0.20840
C665        C  0.47512906  0.95947435  0.95933969    -0.08900
C666        C  0.45247310  0.91719822  0.95487392     0.29980
F667        F  0.40165044  0.91432138  0.94906359    -0.19420
H668        H  0.46367970  0.84743358  0.94584521     0.18630
H669        H  0.04600149  0.99067199  0.97329734     0.18350
F670        F  0.10522117  0.92225117  0.97859147    -0.19410
C671        C  0.40027425  0.66333658  0.03908875    -0.20840
C672        C  0.34667140  0.65915563  0.03821728    -0.08880
C673        C  0.32277708  0.66563483  0.01045563     0.29970
C674        C  0.35177987  0.66672568  0.98412634    -0.20840
C675        C  0.40581550  0.66897122  0.98482983    -0.08900
C676        C  0.42889070  0.66851286  0.01341947     0.29980
F677        F  0.47996775  0.67353671  0.01686008    -0.19420
H678        H  0.42131758  0.66386298  0.05977569     0.18350
H679        H  0.33061344  0.66472838  0.96362414     0.18350
F680        F  0.27090923  0.66761856  0.00835990    -0.19410
C681        C  0.45914533  0.73668188  0.54476327    -0.20840
C682        C  0.47704581  0.69741799  0.55873739    -0.08880
C683        C  0.03049075  0.69564639  0.56331775     0.29970
C684        C  0.05609736  0.73555788  0.56910403    -0.20840
C685        C  0.03331140  0.77765577  0.56259226    -0.08900
C686        C  0.49019142  0.77431621  0.54354460     0.29980
F687        F  0.47613900  0.80767798  0.52549233    -0.19420
H688        H  0.42097978  0.73905019  0.53559639     0.18350
H689        H  0.09414817  0.73270084  0.57811750     0.18350
F690        F  0.05956615  0.65756387  0.55734101    -0.19410
C691        C  0.46990653  0.86552130  0.57400839    -0.20840
C692        C  0.02309891  0.86505003  0.57929668    -0.08880
C693        C  0.04177628  0.90681897  0.59095291     0.29970
C694        C  0.00964589  0.94563599  0.59333783    -0.20840
C695        C  0.46537663  0.94804821  0.57568362    -0.08900
C696        C  0.44324388  0.90584776  0.56847005     0.29980
F697        F  0.39496176  0.90278953  0.55761685    -0.19420
H698        H  0.44829415  0.83546773  0.57288947     0.18350
H699        H  0.02336238  0.97544769  0.60530489     0.18350
F700        F  0.09099933  0.91142036  0.59948843    -0.19410
C701        C  0.26779403  0.79169716  0.47610193    -0.20840
C702        C  0.22473934  0.79501016  0.45713399    -0.08880
C703        C  0.22059200  0.75916268  0.43491681     0.29970
C704        C  0.24760531  0.71849996  0.43738984    -0.20840
C705        C  0.28504231  0.71260469  0.45939903    -0.08900
C706        C  0.29786113  0.75177735  0.47705211     0.29980
F707        F  0.33981805  0.75266292  0.49478323    -0.19420
H708        H  0.27682507  0.81987845  0.49133914     0.18350
H709        H  0.24009806  0.69153334  0.42098409     0.18350
F710        F  0.19388770  0.76305326  0.40928301    -0.19410
C711        C  0.26603574  0.87957769  0.44298040    -0.20840
C712        C  0.21839689  0.88144146  0.45847405    -0.08880
C713        C  0.20270805  0.92459354  0.47127481     0.29970
C714        C  0.23308974  0.96202364  0.46932912    -0.20840
C715        C  0.28110785  0.95947027  0.45497624    -0.08900
C716        C  0.29792142  0.91663276  0.44284845     0.29980
F717        F  0.34539280  0.91006980  0.43077202    -0.19420
H718        H  0.28014320  0.84874520  0.43136920     0.18350
H719        H  0.21909286  0.99330813  0.48044928     0.18350
F720        F  0.15880686  0.93239380  0.48671047    -0.19410
C721        C  0.39368102  0.70284161  0.43599722    -0.20840
C722        C  0.35264713  0.67341676  0.43128223    -0.08880
C723        C  0.33896044  0.66210346  0.40113446     0.29970
C724        C  0.36599921  0.67893999  0.37742162    -0.20840
C725        C  0.40645903  0.70769345  0.38299494    -0.08900
C726        C  0.42053629  0.71908919  0.41236643     0.29980
F727        F  0.45889188  0.74783916  0.41825745    -0.19420
H728        H  0.40406036  0.71495385  0.45828468     0.18350
H729        H  0.35483327  0.67004182  0.35464977     0.18350
F730        F  0.29787353  0.97038709  0.39413408    -0.19410
C731        C  0.32243234  0.00327623  0.51522220    -0.20840
C732        C  0.34638292  0.99247491  0.48744796    -0.08880
C733        C  0.39601071  0.97194397  0.48791503     0.29970
C734        C  0.42333239  0.97062802  0.51459293    -0.20840
C735        C  0.40197425  0.98793125  0.54199726    -0.08900
C736        C  0.34978726  0.00291090  0.54191481     0.29980
F737        F  0.32521909  0.02084527  0.56666718    -0.19420
H738        H  0.28313558  0.01597431  0.51616756     0.18350
H739        H  0.46258220  0.62427410  0.51371601     0.18350
F740        F  0.41914842  0.62060865  0.46266361    -0.19410
C741        C  0.14117447  0.83179744  0.60537912    -0.20840
C742        C  0.09077539  0.81663840  0.60151836    -0.08880
C743        C  0.06859927  0.79629947  0.62597120     0.29970
C744        C  0.09835581  0.78423395  0.65035688    -0.20840
C745        C  0.14978382  0.79564019  0.65228344    -0.08900
C746        C  0.17016251  0.82161853  0.63029324     0.29980
F747        F  0.21898227  0.83567996  0.63207882    -0.19420
H748        H  0.15898686  0.85127706  0.58886605     0.18350
H749        H  0.08113239  0.76592976  0.66775187     0.18350
F750        F  0.01856541  0.78634761  0.62583218    -0.19410
C751        C  0.38304753  0.73286363  0.63883411    -0.20840
C752        C  0.34989721  0.70268448  0.65083589    -0.08880
C753        C  0.34763780  0.65918540  0.63730236     0.29970
C754        C  0.37675434  0.98019180  0.61180616    -0.20840
C755        C  0.40937080  0.67722536  0.59847172    -0.08900
C756        C  0.41206480  0.72081097  0.61314608     0.29980
F757        F  0.44005550  0.75353005  0.60256832    -0.19420
H758        H  0.38512815  0.76686428  0.64871630     0.18350
H759        H  0.37183009  0.94680322  0.60199533     0.18350
F760        F  0.31654236  0.96181518  0.64833389    -0.19410
C761        C  0.18195665  0.86978388  0.91164329    -0.20840
C762        C  0.15832100  0.87297663  0.88395411    -0.08880
C763        C  0.10761688  0.85984362  0.88056052     0.29970
C764        C  0.08128005  0.84356888  0.90477811    -0.20840
C765        C  0.10417547  0.84098935  0.93332628    -0.08900
C766        C  0.15528581  0.85596822  0.93621856     0.29980
F767        F  0.17893031  0.86240906  0.96289076    -0.19420
H768        H  0.22065113  0.88107634  0.91483306     0.18350
H769        H  0.04170940  0.83481314  0.90163221     0.18350
F770        F  0.08353584  0.86276422  0.85392520    -0.19410
C771        C  0.37038772  0.02923334  0.92053006    -0.20840
C772        C  0.41346026  0.00089271  0.92584873    -0.08880
C773        C  0.43068139  0.97165959  0.90133586     0.29970
C774        C  0.39835235  0.96161840  0.87745975    -0.20840
C775        C  0.34968299  0.98238220  0.87609911    -0.08900
C776        C  0.33734288  0.01884255  0.89659291     0.29980
F777        F  0.29240812  0.70939548  0.89455485    -0.19420
H778        H  0.35950487  0.72318055  0.93657802     0.18350
H779        H  0.41089348  0.93608543  0.86055922     0.18350
F780        F  0.47818504  0.95161558  0.90032521    -0.19410
In781      In  0.74539557  0.25769964  0.81802014     1.36870
C782        C  0.74038606  0.31892662  0.77781695     0.78050
O783        O  0.76727848  0.31290369  0.85156824    -0.60400
O784        O  0.82241383  0.26087011  0.83860860    -0.51310
C785        C  0.68774389  0.22432886  0.85951612     0.70710
O786        O  0.66968053  0.25281779  0.84202099    -0.46170
C787        C  0.74980126  0.18777756  0.77924490     0.75420
O788        O  0.70151870  0.31087372  0.79330241    -0.58030
O789        O  0.78928308  0.20110987  0.79282234    -0.48120
O790        O  0.78051954  0.29644463  0.78344772    -0.54460
C791        C  0.81222378  0.29658181  0.85458047     0.85600
O792        O  0.73440483  0.21338270  0.85548172    -0.56350
O793        O  0.70878799  0.20938005  0.78615378    -0.59640
In794      In  0.74703353  0.08237533  0.71659431     1.36870
C795        C  0.75031609  0.15027498  0.75689614     0.78050
O796        O  0.72390134  0.13148186  0.68344707    -0.60400
O797        O  0.67320116  0.07872670  0.69083892    -0.51310
C798        C  0.81493033  0.05137996  0.67568458     0.70710
O799        O  0.82053060  0.08770332  0.69126891    -0.46170
C800        C  0.74099248  0.01907827  0.75528574     0.75420
O801        O  0.79075359  0.13195537  0.74563118    -0.58030
O802        O  0.70131805  0.03554026  0.74338916    -0.48120
O803        O  0.70921766  0.13429099  0.74721811    -0.54460
C804        C  0.68270185  0.11286791  0.67642122     0.85600
O805        O  0.77573866  0.03017873  0.68214176    -0.56350
O806        O  0.78269090  0.03361874  0.74640392    -0.59640
C807        C  0.81669835  0.33372455  0.45816935    -0.02020
C808        C  0.93868964  0.32781880  0.56897801    -0.02020
C809        C  0.94141091  0.00304638  0.95664007    -0.02020
C810        C  0.81490563  0.98611590  0.06712681    -0.02020
In811      In  0.49376596  0.09252029  0.31826773     1.36870
C812        C  0.48865597  0.15567586  0.27953423     0.78050
O813        O  0.51178095  0.14725009  0.35262475    -0.60400
O814        O  0.56677843  0.09303086  0.34405000    -0.51310
C815        C  0.93566420  0.05836180  0.35856489     0.70710
O816        O  0.91894329  0.08967200  0.34278787    -0.46170
C817        C  0.49829019  0.02375843  0.27845352     0.75420
O818        O  0.94902385  0.14450148  0.29318027    -0.58030
O819        O  0.53834381  0.03876092  0.29066603    -0.48120
O820        O  0.52976766  0.13538665  0.28636526    -0.54460
C821        C  0.55401403  0.12869465  0.35946920     0.85600
O822        O  0.98092508  0.04426175  0.35306250    -0.56350
O823        O  0.95696215  0.04365515  0.28683996    -0.59640
In824      In  0.49504914  0.25021296  0.21698589     1.36870
C825        C  0.48875811  0.18960437  0.25728164     0.78050
O826        O  0.53133938  0.19340711  0.18894022    -0.60400
O827        O  0.56623693  0.25727200  0.19054665    -0.51310
C828        C  0.93368613  0.27509441  0.17320415     0.70710
O829        O  0.93240565  0.23640821  0.18344011    -0.46170
C830        C  0.49840725  0.31920049  0.25628208     0.75420
O831        O  0.94898810  0.20472833  0.24459041    -0.58030
O832        O  0.53860495  0.30239813  0.24369691    -0.48120
O833        O  0.53031576  0.20524811  0.24907937    -0.54460
C834        C  0.56585352  0.21727952  0.17929496     0.85600
O835        O  0.96356022  0.30155244  0.18666354    -0.56350
O836        O  0.95725463  0.30108940  0.24836338    -0.59640
C837        C  0.56879578  0.16659135  0.96048838    -0.02020
C838        C  0.68702185  0.15794935  0.07347825    -0.02020
C839        C  0.68648340  0.17081093  0.46068465    -0.02020
C840        C  0.56007186  0.15611684  0.57207442    -0.02020
C841        C  0.67017798  0.14167919  0.51385675    -0.20840
C842        C  0.65609810  0.17098476  0.49132932    -0.08880
C843        C  0.60775318  0.19441480  0.49580830     0.29970
C844        C  0.57945722  0.19212571  0.52230724    -0.20840
C845        C  0.59549667  0.16406874  0.54502754    -0.08900
C846        C  0.64071178  0.13738545  0.53925375     0.29980
F847        F  0.65771328  0.10612184  0.55802522    -0.19420
H848        H  0.70268114  0.11877021  0.51220636     0.18350
H849        H  0.54316893  0.21073827  0.52403844     0.18350
F850        F  0.58584260  0.21821605  0.47391905    -0.19410
C851        C  0.66941180  0.12994586  0.01855858    -0.20840
C852        C  0.65120297  0.15258630  0.04536550    -0.08880
C853        C  0.59985812  0.17008304  0.04442192     0.29970
C854        C  0.57650754  0.17790209  0.01733479    -0.20840
C855        C  0.59790770  0.16053543  0.99014226    -0.08900
C856        C  0.64104046  0.13075128  0.99203172     0.29980
F857        F  0.65846760  0.10566189  0.96762523    -0.19420
H858        H  0.70613724  0.11194325  0.01788065     0.18350
H859        H  0.53960596  0.19553423  0.01810911     0.18350
F860        F  0.56926954  0.17647789  0.06878814    -0.19410
C861        C  0.64760502  0.14220064  0.12558839    -0.20840
C862        C  0.65335856  0.17074815  0.10175003    -0.08880
C863        C  0.63111689  0.21535608  0.10551751     0.29970
C864        C  0.60574732  0.23023321  0.13153522    -0.20840
C865        C  0.59926923  0.20133527  0.15438862    -0.08900
C866        C  0.61966201  0.15699102  0.15129289     0.29980
F867        F  0.61338050  0.12830209  0.17335428    -0.19420
H868        H  0.66445092  0.10854768  0.12481957     0.18350
H869        H  0.58905583  0.26417579  0.13324384     0.18350
F870        F  0.63364368  0.24489109  0.08357239    -0.19410
C871        C  0.64671267  0.19197334  0.40988386    -0.20840
C872        C  0.64598548  0.16630695  0.43550158    -0.08880
C873        C  0.60990825  0.13158820  0.43615160     0.29970
C874        C  0.57986435  0.12077402  0.41139088    -0.20840
C875        C  0.58342689  0.14442782  0.38560485    -0.08900
C876        C  0.61570546  0.18102367  0.38513674     0.29980
F877        F  0.61914202  0.20462612  0.36025912    -0.19420
H878        H  0.67292345  0.21898681  0.40808717     0.18350
H879        H  0.55520873  0.09233438  0.41190956     0.18350
F880        F  0.60786019  0.10441460  0.45940043    -0.19410
C881        C  0.80322706  0.07116928  0.07390442    -0.20840
C882        C  0.77956181  0.02947556  0.07184615    -0.08880
C883        C  0.72498662  0.03069841  0.07199770     0.29970
C884        C  0.69682340  0.07182563  0.07428451    -0.20840
C885        C  0.72072576  0.11362276  0.07598331    -0.08900
C886        C  0.77538820  0.11200668  0.07643104     0.29980
F887        F  0.80393969  0.14915300  0.07882303    -0.19420
H888        H  0.84462406  0.07213520  0.07356659     0.18350
H889        H  0.65544347  0.07107256  0.07340035     0.18350
F890        F  0.69748799  0.99302701  0.06832474    -0.19410
C891        C  0.76293097  0.26370074  0.09328539    -0.20840
C892        C  0.78254140  0.27632907  0.06578684    -0.08880
C893        C  0.77469149  0.24615517  0.04052846     0.29970
C894        C  0.74248373  0.20974706  0.04252308    -0.20840
C895        C  0.72291697  0.19808418  0.07023424    -0.08900
C896        C  0.74038199  0.22297295  0.09589773     0.29980
F897        F  0.73524056  0.20845327  0.12388221    -0.19420
H898        H  0.76852834  0.28410987  0.11370577     0.18350
H899        H  0.73587544  0.18943034  0.02234434     0.18350
F900        F  0.79879307  0.24916146  0.01409927    -0.19410
C901        C  0.90754629  0.25981062  0.12056901    -0.20840
C902        C  0.90491129  0.28796005  0.14660569    -0.08880
C903        C  0.87744946  0.32925450  0.14632960     0.29970
C904        C  0.85016591  0.34087798  0.12086992    -0.20840
C905        C  0.85169355  0.31254202  0.09431383    -0.08900
C906        C  0.88245283  0.27213807  0.09464561     0.29980
F907        F  0.88585595  0.24315030  0.07012916    -0.19420
H908        H  0.92966543  0.22828009  0.12019705     0.18350
H909        H  0.82628344  0.03783445  0.12300470     0.18350
F910        F  0.87493549  0.35746013  0.17123478    -0.19410
C911        C  0.51351696  0.04949149  0.93609321    -0.20840
C912        C  0.97319541  0.04634559  0.95695375    -0.08880
C913        C  0.96326336  0.08417496  0.97685141     0.29970
C914        C  0.99585066  0.12004335  0.97815938    -0.20840
C915        C  0.53598063  0.12379053  0.95736704    -0.08900
C916        C  0.54488923  0.08696902  0.93644391     0.29980
F917        F  0.58523563  0.08534657  0.91734413    -0.19420
H918        H  0.52214364  0.02180173  0.91999145     0.18350
H919        H  0.98690462  0.14702457  0.99467319     0.18350
F920        F  0.92099974  0.08853691  0.99451073    -0.19410
C921        C  0.98227101  0.21089648  0.95390200    -0.20840
C922        C  0.53436923  0.21057403  0.96222905    -0.08880
C923        C  0.55590679  0.25279461  0.96958511     0.29970
C924        C  0.52721507  0.29295914  0.96747480    -0.20840
C925        C  0.97512759  0.29280796  0.95934033    -0.08900
C926        C  0.95247181  0.25053177  0.95487450     0.29980
F927        F  0.90164918  0.24765480  0.94906413    -0.19420
H928        H  0.96367887  0.18076728  0.94584529     0.18630
H929        H  0.54599974  0.32400576  0.97329835     0.18350
F930        F  0.60521962  0.25558504  0.97859255    -0.19410
C931        C  0.90027635  0.99667010  0.03908854    -0.20840
C932        C  0.84667342  0.99248958  0.03821730    -0.08880
C933        C  0.82277890  0.99896906  0.01045574     0.29970
C934        C  0.85178142  0.00005921  0.98412630    -0.20840
C935        C  0.90581711  0.00230403  0.98482956    -0.08900
C936        C  0.92889261  0.00184579  0.01341911     0.29980
F937        F  0.97996976  0.00686932  0.01685951    -0.19420
H938        H  0.92131997  0.99719655  0.05977537     0.18350
H939        H  0.83061472  0.99806213  0.96362419     0.18350
F940        F  0.77091102  0.00095364  0.00836024    -0.19410
C941        C  0.95914373  0.07001551  0.54476333    -0.20840
C942        C  0.97704427  0.03075134  0.55873709    -0.08880
C943        C  0.53048945  0.02897908  0.56331664     0.29970
C944        C  0.55609680  0.06889026  0.56910276    -0.20840
C945        C  0.53331094  0.11098848  0.56259165    -0.08900
C946        C  0.99019022  0.10764958  0.54354447     0.29980
F947        F  0.97613767  0.14101163  0.52549245    -0.19420
H948        H  0.92097790  0.07238422  0.53559690     0.18350
H949        H  0.59414791  0.06603277  0.57811575     0.18350
F950        F  0.55956406  0.99089617  0.55733965    -0.19410
C951        C  0.96990692  0.19885440  0.57400865    -0.20840
C952        C  0.52309934  0.19838264  0.57929676    -0.08880
C953        C  0.54177716  0.24015139  0.59095305     0.29970
C954        C  0.50964716  0.27896864  0.59333804    -0.20840
C955        C  0.96537801  0.28138133  0.57568380    -0.08900
C956        C  0.94324474  0.23918108  0.56847027     0.29980
F957        F  0.89496252  0.23612325  0.55761716    -0.19420
H958        H  0.94829415  0.16880105  0.57288989     0.18350
H959        H  0.52336383  0.30878011  0.60530529     0.18350
F960        F  0.59100026  0.24475240  0.59948855    -0.19410
C961        C  0.76779406  0.12503047  0.47610122    -0.20840
C962        C  0.72473872  0.12834358  0.45713376    -0.08880
C963        C  0.72058987  0.09249553  0.43491712     0.29970
C964        C  0.74760276  0.05183260  0.43739027    -0.20840
C965        C  0.78504099  0.04593766  0.45939879    -0.08900
C966        C  0.79786104  0.08511061  0.47705117     0.29980
F967        F  0.83981887  0.08599626  0.49478157    -0.19420
H968        H  0.77682595  0.15321188  0.49133814     0.18350
H969        H  0.74009417  0.02486561  0.42098507     0.18350
F970        F  0.69388440  0.09638556  0.40928369    -0.19410
C971        C  0.76603689  0.21291094  0.44298098    -0.20840
C972        C  0.71839752  0.21477511  0.45847408    -0.08880
C973        C  0.70270848  0.25792742  0.47127437     0.29970
C974        C  0.73309059  0.29535731  0.46932894    -0.20840
C975        C  0.78110921  0.29280352  0.45497661    -0.08900
C976        C  0.79792289  0.24996581  0.44284926     0.29980
F977        F  0.84539462  0.24340250  0.43077336    -0.19420
H978        H  0.78014447  0.18207835  0.43136996     0.18350
H979        H  0.71909357  0.32664196  0.48044881     0.18350
F980        F  0.65880660  0.26572806  0.48670930    -0.19410
C981        C  0.89368139  0.03617267  0.43599746    -0.20840
C982        C  0.85264599  0.00674954  0.43128215    -0.08880
C983        C  0.83895813  0.99543846  0.40113426     0.29970
C984        C  0.86599716  0.01227533  0.37742164    -0.20840
C985        C  0.90645879  0.04102671  0.38299528    -0.08900
C986        C  0.92053720  0.05242026  0.41236688     0.29980
F987        F  0.95889422  0.08116857  0.41825831    -0.19420
H988        H  0.90406162  0.04828367  0.45828503     0.18350
H989        H  0.85483022  0.00337886  0.35464972     0.18350
F990        F  0.79787581  0.30371864  0.39413448    -0.19410
C991        C  0.82243393  0.33660911  0.51522247    -0.20840
C992        C  0.84638459  0.32580812  0.48744821    -0.08880
C993        C  0.89601261  0.30527762  0.48791524     0.29970
C994        C  0.92333428  0.30396168  0.51459314    -0.20840
C995        C  0.90197604  0.32126470  0.54199749    -0.08900
C996        C  0.84978892  0.33624397  0.54191508     0.29980
F997        F  0.82522063  0.35417801  0.56666749    -0.19420
H998        H  0.78313703  0.34930684  0.51616782     0.18350
H999        H  0.96257960  0.95760542  0.51371616     0.18350
F1000       F  0.91914491  0.95393864  0.46266392    -0.19410
C1001       C  0.64117428  0.16512931  0.60537904    -0.20840
C1002       C  0.59077532  0.14997007  0.60151805    -0.08880
C1003       C  0.56859921  0.12963062  0.62597068     0.29970
C1004       C  0.59835553  0.11756527  0.65035649    -0.20840
C1005       C  0.64978331  0.12897209  0.65228338    -0.08900
C1006       C  0.67016207  0.15495054  0.63029327     0.29980
F1007       F  0.71898165  0.16901237  0.63207910    -0.19420
H1008       H  0.65898675  0.18460915  0.58886612     0.18350
H1009       H  0.58113206  0.09926086  0.66775135     0.18350
F1010       F  0.51856550  0.11967832  0.62583143    -0.19410
C1011       C  0.88304649  0.06619695  0.63883422    -0.20840
C1012       C  0.84989598  0.03601788  0.65083592    -0.08880
C1013       C  0.84763605  0.99251900  0.63730214     0.29970
C1014       C  0.87675633  0.31352544  0.61180659    -0.20840
C1015       C  0.90936928  0.01055888  0.59847161    -0.08900
C1016       C  0.91206358  0.05414436  0.61314609     0.29980
F1017       F  0.94005426  0.08686342  0.60256832    -0.19420
H1018       H  0.88512739  0.10019750  0.64871654     0.18350
H1019       H  0.87183211  0.28013676  0.60199593     0.18350
F1020       F  0.81654455  0.29514906  0.64833447    -0.19410
C1021       C  0.68195523  0.20311934  0.91164331    -0.20840
C1022       C  0.65831961  0.20631178  0.88395410    -0.08880
C1023       C  0.60761558  0.19317851  0.88056052     0.29970
C1024       C  0.58127891  0.17690357  0.90477811    -0.20840
C1025       C  0.60417445  0.17432401  0.93332624    -0.08900
C1026       C  0.65528454  0.18930343  0.93621857     0.29980
F1027       F  0.67892896  0.19574432  0.96289079    -0.19420
H1028       H  0.72064960  0.21441205  0.91483309     0.18350
H1029       H  0.54170836  0.16814752  0.90163221     0.18350
F1030       F  0.58353453  0.19609892  0.85392518    -0.19410
C1031       C  0.87038659  0.36256689  0.92053022    -0.20840
C1032       C  0.91345890  0.33422608  0.92584909    -0.08880
C1033       C  0.93068003  0.30499274  0.90133633     0.29970
C1034       C  0.89835113  0.29495161  0.87746014    -0.20840
C1035       C  0.84968196  0.31571570  0.87609928    -0.08900
C1036       C  0.83734191  0.35217619  0.89659299     0.29980
F1037       F  0.79240958  0.04272798  0.89455439    -0.19420
H1038       H  0.85950630  0.05651320  0.93657753     0.18350
H1039       H  0.91089224  0.26941850  0.86055969     0.18350
F1040       F  0.97818359  0.28494855  0.90032582    -0.19410
In1041     In  0.74539531  0.59103321  0.81802046     1.36870
C1042       C  0.74038553  0.65225988  0.77781708     0.78050
O1043       O  0.76727797  0.64623747  0.85156853    -0.60400
O1044       O  0.82241352  0.59420406  0.83860891    -0.51310
C1045       C  0.68774354  0.55766197  0.85951623     0.70710
O1046       O  0.66968017  0.58615095  0.84202114    -0.46170
C1047       C  0.74980173  0.52111128  0.77924514     0.75420
O1048       O  0.70151824  0.64420706  0.79330261    -0.58030
O1049       O  0.78928333  0.53444362  0.79282278    -0.48120
O1050       O  0.78051909  0.62977805  0.78344791    -0.54460
C1051       C  0.81222337  0.62991577  0.85458072     0.85600
O1052       O  0.73440456  0.54671603  0.85548191    -0.56350
O1053       O  0.70878829  0.54271359  0.78615390    -0.59640
In1054     In  0.74703490  0.41570951  0.71659419     1.36870
C1055       C  0.75031695  0.48360887  0.75689624     0.78050
O1056       O  0.72390307  0.46481613  0.68344687    -0.60400
O1057       O  0.67320259  0.41206119  0.69083875    -0.51310
C1058       C  0.81493205  0.38471409  0.67568465     0.70710
O1059       O  0.82053219  0.42103752  0.69126893    -0.46170
C1060       C  0.74099310  0.35241228  0.75528547     0.75420
O1061       O  0.79075461  0.46528936  0.74563143    -0.58030
O1062       O  0.70131894  0.36887424  0.74338859    -0.48120
O1063       O  0.70921866  0.46762497  0.74721793    -0.54460
C1064       C  0.68270343  0.44620238  0.67642107     0.85600
O1065       O  0.77574034  0.36351288  0.68214177    -0.56350
O1066       O  0.78269170  0.36695285  0.74640400    -0.59640
C1067       C  0.81669823  0.66705846  0.45816924    -0.02020
C1068       C  0.93868937  0.66115202  0.56897786    -0.02020
C1069       C  0.94140941  0.33637994  0.95664049    -0.02020
C1070       C  0.81490327  0.31944948  0.06712687    -0.02020
In1071     In  0.49376682  0.42585257  0.31826757     1.36870
C1072       C  0.48865596  0.48900853  0.27953440     0.78050
O1073       O  0.51178273  0.48058226  0.35262446    -0.60400
O1074       O  0.56677935  0.42636234  0.34404987    -0.51310
C1075       C  0.93566531  0.39169408  0.35856480     0.70710
O1076       O  0.91894476  0.42300510  0.34278835    -0.46170
C1077       C  0.49829033  0.35709119  0.27845295     0.75420
O1078       O  0.94902408  0.47783374  0.29318049    -0.58030
O1079       O  0.53834421  0.37209357  0.29066524    -0.48120
O1080       O  0.52976789  0.46871948  0.28636520    -0.54460
C1081       C  0.55401549  0.46202636  0.35946898     0.85600
O1082       O  0.98092566  0.37759315  0.35306177    -0.56350
O1083       O  0.95696245  0.37698783  0.28683978    -0.59640
In1084     In  0.49504764  0.58354594  0.21698624     1.36870
C1085       C  0.48875754  0.52293726  0.25728196     0.78050
O1086       O  0.53133747  0.52674023  0.18894035    -0.60400
O1087       O  0.56623529  0.59060502  0.19054697    -0.51310
C1088       C  0.93368474  0.60842706  0.17320443     0.70710
O1089       O  0.93240398  0.56974102  0.18344061    -0.46170
C1090       C  0.49840588  0.65253379  0.25628212     0.75420
O1091       O  0.94898724  0.53806117  0.24459099    -0.58030
O1092       O  0.53860353  0.63573123  0.24369701    -0.48120
O1093       O  0.53031497  0.53858120  0.24907953    -0.54460
C1094       C  0.56585164  0.55061264  0.17929514     0.85600
O1095       O  0.96355893  0.63488513  0.18666371    -0.56350
O1096       O  0.95725319  0.63442268  0.24836357    -0.59640
C1097       C  0.56879488  0.49992452  0.96048825    -0.02020
C1098       C  0.68702015  0.49128308  0.07347848    -0.02020
C1099       C  0.68648458  0.50414388  0.46068443    -0.02020
C1100       C  0.56007305  0.48945068  0.57207440    -0.02020
C1101       C  0.67017887  0.47501259  0.51385667    -0.20840
C1102       C  0.65609911  0.50431785  0.49132909    -0.08880
C1103       C  0.60775394  0.52774762  0.49580792     0.29970
C1104       C  0.57945818  0.52545898  0.52230697    -0.20840
C1105       C  0.59549774  0.49740238  0.54502744    -0.08900
C1106       C  0.64071279  0.47071899  0.53925369     0.29980
F1107       F  0.65771413  0.43945542  0.55802523    -0.19420
H1108       H  0.70268258  0.45210308  0.51220627     0.18350
H1109       H  0.54316972  0.54407143  0.52403807     0.18350
F1110       F  0.58584260  0.55154767  0.47391833    -0.19410
C1111       C  0.66941045  0.46327948  0.01855879    -0.20840
C1112       C  0.65120152  0.48592019  0.04536561    -0.08880
C1113       C  0.59985668  0.50341693  0.04442186     0.29970
C1114       C  0.57650626  0.51123570  0.01733466    -0.20840
C1115       C  0.59790654  0.49386875  0.99014222    -0.08900
C1116       C  0.64103921  0.46408458  0.99203189     0.29980
F1117       F  0.65846639  0.43899487  0.96762554    -0.19420
H1118       H  0.70613581  0.44527675  0.01788099     0.18350
H1119       H  0.53960470  0.52886788  0.01810884     0.18350
F1120       F  0.56926790  0.50981196  0.06878799    -0.19410
C1121       C  0.64760298  0.47553405  0.12558842    -0.20840
C1122       C  0.65335666  0.50408174  0.10175017    -0.08880
C1123       C  0.63111487  0.54868960  0.10551769     0.29970
C1124       C  0.60574522  0.56356658  0.13153539    -0.20840
C1125       C  0.59926717  0.53466851  0.15438873    -0.08900
C1126       C  0.61965989  0.49032426  0.15129290     0.29980
F1127       F  0.61337829  0.46163520  0.17335420    -0.19420
H1128       H  0.66444883  0.44188107  0.12481954     0.18350
H1129       H  0.58905371  0.59750915  0.13324408     0.18350
F1130       F  0.63364181  0.57822474  0.08357265    -0.19410
C1131       C  0.64671359  0.52530581  0.40988362    -0.20840
C1132       C  0.64598681  0.49963939  0.43550133    -0.08880
C1133       C  0.60991022  0.46492011  0.43615130     0.29970
C1134       C  0.57986653  0.45410553  0.41139056    -0.20840
C1135       C  0.58342861  0.47775946  0.38560456    -0.08900
C1136       C  0.61570651  0.51435580  0.38513650     0.29980
F1137       F  0.61914252  0.53795844  0.36025894    -0.19420
H1138       H  0.67292394  0.55231962  0.40808695     0.18350
H1139       H  0.55521124  0.42566565  0.41190925     0.18350
F1140       F  0.60786257  0.43774656  0.45940018    -0.19410
C1141       C  0.80322492  0.40450279  0.07390521    -0.20840
C1142       C  0.77955954  0.36280914  0.07184633    -0.08880
C1143       C  0.72498437  0.36403206  0.07199747     0.29970
C1144       C  0.69682125  0.40515932  0.07428435    -0.20840
C1145       C  0.72072376  0.44695638  0.07598366    -0.08900
C1146       C  0.77538613  0.44534021  0.07643212     0.29980
F1147       F  0.80393758  0.48248648  0.07882534    -0.19420
H1148       H  0.84462194  0.40546863  0.07356780     0.18350
H1149       H  0.65544134  0.40440635  0.07339982     0.18350
F1150       F  0.69748571  0.32636074  0.06832401    -0.19410
C1151       C  0.76292935  0.59703477  0.09328530    -0.20840
C1152       C  0.78254104  0.60966197  0.06578681    -0.08880
C1153       C  0.77469230  0.57948714  0.04052877     0.29970
C1154       C  0.74248414  0.54307930  0.04252346    -0.20840
C1155       C  0.72291554  0.53141780  0.07023452    -0.08900
C1156       C  0.74037961  0.55630739  0.09589793     0.29980
F1157       F  0.73523710  0.54178873  0.12388261    -0.19420
H1158       H  0.76852628  0.61744451  0.11370548     0.18350
H1159       H  0.73587698  0.52276166  0.02234497     0.18350
F1160       F  0.79879574  0.58249220  0.01410001    -0.19410
C1161       C  0.90754530  0.59314295  0.12056924    -0.20840
C1162       C  0.90491015  0.62129252  0.14660586    -0.08880
C1163       C  0.87744866  0.66258710  0.14632957     0.29970
C1164       C  0.85016555  0.67421060  0.12086976    -0.20840
C1165       C  0.85169331  0.64587450  0.09431373    -0.08900
C1166       C  0.88245228  0.60547041  0.09464569     0.29980
F1167       F  0.88585553  0.57648255  0.07012930    -0.19420
H1168       H  0.92966425  0.56161233  0.12019744     0.18350
H1169       H  0.82628022  0.37116697  0.12300524     0.18350
F1170       F  0.87493461  0.69079287  0.17123468    -0.19410
C1171       C  0.51351567  0.38282466  0.93609352    -0.20840
C1172       C  0.97319400  0.37967909  0.95695402    -0.08880
C1173       C  0.96326192  0.41750868  0.97685148     0.29970
C1174       C  0.99584927  0.45337705  0.97815928    -0.20840
C1175       C  0.53597945  0.45712385  0.95736702    -0.08900
C1176       C  0.54488805  0.42030210  0.93644408     0.29980
F1177       F  0.58523454  0.41867935  0.91734435    -0.19420
H1178       H  0.52214236  0.35513471  0.91999191     0.18350
H1179       H  0.98690320  0.48035848  0.99467293     0.18350
F1180       F  0.92099828  0.42187084  0.99451077    -0.19410
C1181       C  0.98227052  0.54423000  0.95390148    -0.20840
C1182       C  0.53436863  0.54390733  0.96222872    -0.08880
C1183       C  0.55590640  0.58612779  0.96958487     0.29970
C1184       C  0.52721490  0.62629242  0.96747462    -0.20840
C1185       C  0.97512747  0.62614148  0.95934005    -0.08900
C1186       C  0.95247153  0.58386539  0.95487395     0.29980
F1187       F  0.90164893  0.58098863  0.94906343    -0.19420
H1188       H  0.96367831  0.51410086  0.94584469     0.18630
H1189       H  0.54599969  0.65733892  0.97329834     0.18350
F1190       F  0.60521919  0.58891801  0.97859241    -0.19410
C1191       C  0.90027417  0.33000411  0.03908887    -0.20840
C1192       C  0.84667126  0.32582348  0.03821748    -0.08880
C1193       C  0.82277695  0.33230313  0.01045588     0.29970
C1194       C  0.85177968  0.33339319  0.98412651    -0.20840
C1195       C  0.90581538  0.33563788  0.98482990    -0.08900
C1196       C  0.92889063  0.33517980  0.01341952     0.29980
F1197       F  0.97996773  0.34020342  0.01686007    -0.19420
H1198       H  0.92131759  0.33053059  0.05977577     0.18350
H1199       H  0.83061312  0.33139613  0.96362435     0.18350
F1200       F  0.77090909  0.33428788  0.00836026    -0.19410
C1201       C  0.95914607  0.40334840  0.54476319    -0.20840
C1202       C  0.97704633  0.36408451  0.55873739    -0.08880
C1203       C  0.53049132  0.36231267  0.56331771     0.29970
C1204       C  0.55609826  0.40222408  0.56910378    -0.20840
C1205       C  0.53331251  0.44432202  0.56259195    -0.08900
C1206       C  0.99019241  0.44098255  0.54354435     0.29980
F1207       F  0.97614014  0.47434427  0.52549201    -0.19420
H1208       H  0.92098051  0.40571685  0.53559635     0.18350
H1209       H  0.59414918  0.39936695  0.57811712     0.18350
F1210       F  0.55956646  0.32422997  0.55734109    -0.19410
C1211       C  0.96990779  0.53218774  0.57400804    -0.20840
C1212       C  0.52310012  0.53171628  0.57929648    -0.08880
C1213       C  0.54177751  0.57348512  0.59095290     0.29970
C1214       C  0.50964716  0.61230216  0.59333790    -0.20840
C1215       C  0.96537811  0.61471467  0.57568355    -0.08900
C1216       C  0.94324530  0.57251431  0.56846977     0.29980
F1217       F  0.89496315  0.56945627  0.55761658    -0.19420
H1218       H  0.94829528  0.50213425  0.57288903     0.18350
H1219       H  0.52336349  0.64211367  0.60530527     0.18350
F1220       F  0.59100048  0.57808638  0.59948860    -0.19410
C1221       C  0.76779513  0.45836355  0.47610150    -0.20840
C1222       C  0.72474018  0.46167666  0.45713373    -0.08880
C1223       C  0.72059207  0.42582881  0.43491688     0.29970
C1224       C  0.74760500  0.38516593  0.43739010    -0.20840
C1225       C  0.78504263  0.37927087  0.45939896    -0.08900
C1226       C  0.79786217  0.41844373  0.47705159     0.29980
F1227       F  0.83981963  0.41932939  0.49478228    -0.19420
H1228       H  0.77682663  0.48654488  0.49133853     0.18350
H1229       H  0.74009694  0.35819905  0.42098472     0.18350
F1230       F  0.69388730  0.42971906  0.40928322    -0.19410
C1231       C  0.76603879  0.54624406  0.44298170    -0.20840
C1232       C  0.71839841  0.54810826  0.45847376    -0.08880
C1233       C  0.70270789  0.59126094  0.47127281     0.29970
C1234       C  0.73308983  0.62869103  0.46932762    -0.20840
C1235       C  0.78110941  0.62613720  0.45497639    -0.08900
C1236       C  0.79792427  0.58329927  0.44285000     0.29980
F1237       F  0.84539662  0.57673617  0.43077492    -0.19420
H1238       H  0.78014750  0.51541132  0.43137135     0.18350
H1239       H  0.71909180  0.65997583  0.48044685     0.18350
F1240       F  0.65880456  0.59906182  0.48670625    -0.19410
C1241       C  0.89368243  0.36950618  0.43599753    -0.20840
C1242       C  0.85264749  0.34008250  0.43128239    -0.08880
C1243       C  0.83896010  0.32877046  0.40113455     0.29970
C1244       C  0.86599913  0.34560701  0.37742182    -0.20840
C1245       C  0.90646015  0.37435911  0.38299530    -0.08900
C1246       C  0.92053814  0.38575358  0.41236684     0.29980
F1247       F  0.95889469  0.41450246  0.41825806    -0.19420
H1248       H  0.90406230  0.38161776  0.45828503     0.18350
H1249       H  0.85483254  0.33670986  0.35464994     0.18350
F1250       F  0.79787690  0.63705062  0.39413453    -0.19410
C1251       C  0.82243365  0.66994164  0.51522224    -0.20840
C1252       C  0.84638472  0.65914191  0.48744796    -0.08880
C1253       C  0.89601327  0.63861239  0.48791486     0.29970
C1254       C  0.92333464  0.63729588  0.51459282    -0.20840
C1255       C  0.90197592  0.65459790  0.54199728    -0.08900
C1256       C  0.84978852  0.66957633  0.54191490     0.29980
F1257       F  0.82521970  0.68750930  0.56666743    -0.19420
H1258       H  0.78313642  0.68263853  0.51616760     0.18350
H1259       H  0.96258158  0.29093928  0.51371635     0.18350
F1260       F  0.91914701  0.28727257  0.46266411    -0.19410
C1261       C  0.64117570  0.49846354  0.60537883    -0.20840
C1262       C  0.59077660  0.48330455  0.60151807    -0.08880
C1263       C  0.56860040  0.46296577  0.62597095     0.29970
C1264       C  0.59835683  0.45090046  0.65035672    -0.20840
C1265       C  0.64978482  0.46230674  0.65228332    -0.08900
C1266       C  0.67016364  0.48828481  0.63029303     0.29980
F1267       F  0.71898343  0.50234619  0.63207860    -0.19420
H1268       H  0.65898815  0.51794314  0.58886577     0.18350
H1269       H  0.58113331  0.43259645  0.66775177     0.18350
F1270       F  0.51856653  0.45301394  0.62583191    -0.19410
C1271       C  0.88304835  0.39953084  0.63883427    -0.20840
C1272       C  0.84989786  0.36935186  0.65083610    -0.08880
C1273       C  0.84763808  0.32585284  0.63730254     0.29970
C1274       C  0.87675626  0.64685813  0.61180645    -0.20840
C1275       C  0.90937118  0.34389241  0.59847186    -0.08900
C1276       C  0.91206548  0.38747802  0.61314618     0.29980
F1277       F  0.94005625  0.42019694  0.60256829    -0.19420
H1278       H  0.88512918  0.43353148  0.64871645     0.18350
H1279       H  0.87183242  0.61346939  0.60199579     0.18350
F1280       F  0.81654448  0.62848146  0.64833429    -0.19410
C1281       C  0.68195471  0.53645210  0.91164333    -0.20840
C1282       C  0.65831920  0.53964465  0.88395410    -0.08880
C1283       C  0.60761520  0.52651132  0.88056042     0.29970
C1284       C  0.58127842  0.51023633  0.90477795    -0.20840
C1285       C  0.60417378  0.50765684  0.93332615    -0.08900
C1286       C  0.65528390  0.52263618  0.93621854     0.29980
F1287       F  0.67892824  0.52907705  0.96289079    -0.19420
H1288       H  0.72064907  0.54774480  0.91483318     0.18350
H1289       H  0.54170787  0.50148031  0.90163199     0.18350
F1290       F  0.58353426  0.52943179  0.85392505    -0.19410
C1291       C  0.87038635  0.69590083  0.92053046    -0.20840
C1292       C  0.91345893  0.66756019  0.92584907    -0.08880
C1293       C  0.93068005  0.63832719  0.90133614     0.29970
C1294       C  0.89835101  0.62828611  0.87746002    -0.20840
C1295       C  0.84968162  0.64904986  0.87609942    -0.08900
C1296       C  0.83734149  0.68551012  0.89659330     0.29980
F1297       F  0.79240882  0.37606187  0.89455426    -0.19420
H1298       H  0.85950523  0.38984689  0.93657760     0.18350
H1299       H  0.91089214  0.60275320  0.86055944     0.18350
F1300       F  0.97818365  0.61828308  0.90032548    -0.19410
In1301     In  0.74539643  0.92436560  0.81802035     1.36870
C1302       C  0.74038596  0.98559264  0.77781725     0.78050
O1303       O  0.76727924  0.97956970  0.85156842    -0.60400
O1304       O  0.82241487  0.92753648  0.83860854    -0.51310
C1305       C  0.68774518  0.89099408  0.85951623     0.70710
O1306       O  0.66968160  0.91948311  0.84202124    -0.46170
C1307       C  0.74980226  0.85444388  0.77924488     0.75420
O1308       O  0.70151893  0.97753965  0.79330295    -0.58030
O1309       O  0.78928408  0.86777612  0.79282234    -0.48120
O1310       O  0.78051963  0.96311074  0.78344776    -0.54460
C1311       C  0.81222472  0.96324810  0.85458046     0.85600
O1312       O  0.73440619  0.88004823  0.85548179    -0.56350
O1313       O  0.70878894  0.87604622  0.78615387    -0.59640
In1314     In  0.74703425  0.74904222  0.71659394     1.36870
C1315       C  0.75031706  0.81694153  0.75689596     0.78050
O1316       O  0.72390233  0.79814912  0.68344681    -0.60400
O1317       O  0.67320181  0.74539419  0.69083859    -0.51310
C1318       C  0.81493130  0.71804665  0.67568440     0.70710
O1319       O  0.82053145  0.75437007  0.69126868    -0.46170
C1320       C  0.74099247  0.68574529  0.75528542     0.75420
O1321       O  0.79075451  0.79862193  0.74563095    -0.58030
O1322       O  0.70131827  0.70220723  0.74338858    -0.48120
O1323       O  0.70921858  0.80095775  0.74721785    -0.54460
C1324       C  0.68270260  0.77953552  0.67642104     0.85600
O1325       O  0.77573954  0.69684547  0.68214148    -0.56350
O1326       O  0.78269106  0.70028564  0.74640377    -0.59640
C1327       C  0.81669682  0.00039140  0.45816907    -0.02020
C1328       C  0.93868784  0.99448547  0.56897775    -0.02020
C1329       C  0.94140953  0.66971362  0.95664044    -0.02020
C1330       C  0.81490333  0.65278206  0.06712667    -0.02020
In1331     In  0.49376624  0.75918618  0.31826730     1.36870
C1332       C  0.48865683  0.82234213  0.27953409     0.78050
O1333       O  0.51178246  0.81391577  0.35262417    -0.60400
O1334       O  0.56677819  0.75969499  0.34405015    -0.51310
C1335       C  0.93566418  0.72502813  0.35856436     0.70710
O1336       O  0.91894439  0.75634005  0.34278843    -0.46170
C1337       C  0.49828918  0.69042474  0.27845279     0.75420
O1338       O  0.94902451  0.81116747  0.29317982    -0.58030
O1339       O  0.53834318  0.70542687  0.29066509    -0.48120
O1340       O  0.52976846  0.80205287  0.28636520    -0.54460
C1341       C  0.55401468  0.79535927  0.35946907     0.85600
O1342       O  0.98092397  0.71092606  0.35306085    -0.56350
O1343       O  0.95696143  0.71032180  0.28683946    -0.59640
In1344     In  0.49505039  0.91688020  0.21698642     1.36870
C1345       C  0.48875917  0.85627102  0.25728176     0.78050
O1346       O  0.53134049  0.86007463  0.18894055    -0.60400
O1347       O  0.56623869  0.92393926  0.19054766    -0.51310
C1348       C  0.93368821  0.94176185  0.17320436     0.70710
O1349       O  0.93240708  0.90307580  0.18344050    -0.46170
C1350       C  0.49840759  0.98586760  0.25628274     0.75420
O1351       O  0.94898926  0.87139512  0.24459051    -0.58030
O1352       O  0.53860557  0.96906533  0.24369784    -0.48120
O1353       O  0.53031687  0.87191501  0.24907977    -0.54460
C1354       C  0.56585500  0.88394698  0.17929565     0.85600
O1355       O  0.96356252  0.96821970  0.18666374    -0.56350
O1356       O  0.95725517  0.96775642  0.24836377    -0.59640
C1357       C  0.56879648  0.83325742  0.96048843    -0.02020
C1358       C  0.68702246  0.82461697  0.07347862    -0.02020
C1359       C  0.68648330  0.83747702  0.46068470    -0.02020
C1360       C  0.56007188  0.82278444  0.57207468    -0.02020
C1361       C  0.67017732  0.80834530  0.51385674    -0.20840
C1362       C  0.65609767  0.83765073  0.49132923    -0.08880
C1363       C  0.60775283  0.86108092  0.49580809     0.29970
C1364       C  0.57945705  0.85879250  0.52230716    -0.20840
C1365       C  0.59549658  0.83073595  0.54502769    -0.08900
C1366       C  0.64071146  0.80405232  0.53925395     0.29980
F1367       F  0.65771297  0.77278905  0.55802566    -0.19420
H1368       H  0.70268030  0.78543567  0.51220625     0.18350
H1369       H  0.54316886  0.87740527  0.52403832     0.18350
F1370       F  0.58584252  0.88488209  0.47391871    -0.19410
C1371       C  0.66941193  0.79661294  0.01855914    -0.20840
C1372       C  0.65120357  0.81925446  0.04536583    -0.08880
C1373       C  0.59985913  0.83675224  0.04442203     0.29970
C1374       C  0.57650842  0.84457018  0.01733477    -0.20840
C1375       C  0.59790812  0.82720207  0.99014246    -0.08900
C1376       C  0.64104042  0.79741758  0.99203233     0.29980
F1377       F  0.65846712  0.77232714  0.96762618    -0.19420
H1378       H  0.70613710  0.77860990  0.01788134     0.18350
H1379       H  0.53960706  0.86220270  0.01810885     0.18350
F1380       F  0.56927085  0.84314920  0.06878824    -0.19410
C1381       C  0.64760523  0.80886803  0.12558857    -0.20840
C1382       C  0.65335945  0.83741593  0.10175049    -0.08880
C1383       C  0.63111887  0.88202420  0.10551840     0.29970
C1384       C  0.60574965  0.89690125  0.13153624    -0.20840
C1385       C  0.59927079  0.86800290  0.15438933    -0.08900
C1386       C  0.61966254  0.82365835  0.15129318     0.29980
F1387       F  0.61338023  0.79496901  0.17335424    -0.19420
H1388       H  0.66445027  0.77521476  0.12481945     0.18350
H1389       H  0.58905891  0.93084409  0.13324517     0.18350
F1390       F  0.63364628  0.91155960  0.08357354    -0.19410
C1391       C  0.64671154  0.85863933  0.40988415    -0.20840
C1392       C  0.64598557  0.83297229  0.43550158    -0.08880
C1393       C  0.60990965  0.79825247  0.43615136     0.29970
C1394       C  0.57986613  0.78743775  0.41139055    -0.20840
C1395       C  0.58342763  0.81109223  0.38560474    -0.08900
C1396       C  0.61570458  0.84768926  0.38513700     0.29980
F1397       F  0.61913984  0.87129254  0.36025967    -0.19420
H1398       H  0.67292110  0.88565378  0.40808771     0.18350
H1399       H  0.55521131  0.75899751  0.41190908     0.18350
F1400       F  0.60786248  0.77107865  0.45940011    -0.19410
C1401       C  0.80322614  0.73783544  0.07390473    -0.20840
C1402       C  0.77956014  0.69614207  0.07184595    -0.08880
C1403       C  0.72498498  0.69736559  0.07199712     0.29970
C1404       C  0.69682245  0.73849313  0.07428433    -0.20840
C1405       C  0.72072556  0.78028992  0.07598363    -0.08900
C1406       C  0.77538796  0.77867315  0.07643165     0.29980
F1407       F  0.80394006  0.81581904  0.07882431    -0.19420
H1408       H  0.84462318  0.73880082  0.07356718     0.18350
H1409       H  0.65544250  0.73774061  0.07339992     0.18350
F1410       F  0.69748578  0.65969463  0.06832330    -0.19410
C1411       C  0.76293353  0.93036730  0.09328565    -0.20840
C1412       C  0.78254382  0.94299545  0.06578702    -0.08880
C1413       C  0.77469374  0.91282140  0.04052873     0.29970
C1414       C  0.74248551  0.87641363  0.04252344    -0.20840
C1415       C  0.72291835  0.86475126  0.07023461    -0.08900
C1416       C  0.74038382  0.88963984  0.09589806     0.29980
F1417       F  0.73524214  0.87512030  0.12388257    -0.19420
H1418       H  0.76853125  0.95077641  0.11370600     0.18350
H1419       H  0.73587700  0.85609679  0.02234477     0.18350
F1420       F  0.79879562  0.91582724  0.01409959    -0.19410
C1421       C  0.90754863  0.92647764  0.12056922    -0.20840
C1422       C  0.90491380  0.95462744  0.14660574    -0.08880
C1423       C  0.87745238  0.99592207  0.14632935     0.29970
C1424       C  0.85016882  0.00754526  0.12086960    -0.20840
C1425       C  0.85169609  0.97920880  0.09431373    -0.08900
C1426       C  0.88245524  0.93880481  0.09464574     0.29980
F1427       F  0.88585822  0.90981669  0.07012946    -0.19420
H1428       H  0.92966754  0.89494700  0.12019747     0.18350
H1429       H  0.82628007  0.70449972  0.12300495     0.18350
F1430       F  0.87493877  0.02412814  0.17123432    -0.19410
C1431       C  0.51351608  0.71615807  0.93609358    -0.20840
C1432       C  0.97319449  0.71301259  0.95695415    -0.08880
C1433       C  0.96326317  0.75084195  0.97685193     0.29970
C1434       C  0.99585104  0.78671002  0.97815984    -0.20840
C1435       C  0.53598097  0.79045677  0.95736740    -0.08900
C1436       C  0.54488896  0.75363517  0.93644426     0.29980
F1437       F  0.58523533  0.75201219  0.91734444    -0.19420
H1438       H  0.52214237  0.68846825  0.91999181     0.18350
H1439       H  0.98690556  0.81369135  0.99467368     0.18350
F1440       F  0.92099979  0.75520416  0.99451143    -0.19410
C1441       C  0.98227205  0.87756282  0.95390166    -0.20840
C1442       C  0.53437028  0.87724027  0.96222863    -0.08880
C1443       C  0.55590819  0.91946084  0.96958429     0.29970
C1444       C  0.52721663  0.95962543  0.96747393    -0.20840
C1445       C  0.97512906  0.95947435  0.95933969    -0.08900
C1446       C  0.95247310  0.91719822  0.95487392     0.29980
F1447       F  0.90165045  0.91432138  0.94906360    -0.19420
H1448       H  0.96367971  0.84743358  0.94584521     0.18630
H1449       H  0.54600149  0.99067199  0.97329734     0.18350
F1450       F  0.60522117  0.92225117  0.97859147    -0.19410
C1451       C  0.90027425  0.66333658  0.03908875    -0.20840
C1452       C  0.84667140  0.65915563  0.03821728    -0.08880
C1453       C  0.82277708  0.66563483  0.01045563     0.29970
C1454       C  0.85177987  0.66672568  0.98412634    -0.20840
C1455       C  0.90581550  0.66897122  0.98482983    -0.08900
C1456       C  0.92889070  0.66851286  0.01341947     0.29980
F1457       F  0.97996775  0.67353670  0.01686008    -0.19420
H1458       H  0.92131758  0.66386298  0.05977569     0.18350
H1459       H  0.83061344  0.66472839  0.96362414     0.18350
F1460       F  0.77090923  0.66761857  0.00835990    -0.19410
C1461       C  0.95914530  0.73668189  0.54476327    -0.20840
C1462       C  0.97704579  0.69741800  0.55873738    -0.08880
C1463       C  0.53049076  0.69564638  0.56331777     0.29970
C1464       C  0.55609736  0.73555788  0.56910405    -0.20840
C1465       C  0.53331141  0.77765577  0.56259227    -0.08900
C1466       C  0.99019139  0.77431622  0.54354459     0.29980
F1467       F  0.97613896  0.80767800  0.52549233    -0.19420
H1468       H  0.92097975  0.73905021  0.53559640     0.18350
H1469       H  0.59414817  0.73270084  0.57811754     0.18350
F1470       F  0.55956617  0.65756387  0.55734105    -0.19410
C1471       C  0.96990653  0.86552131  0.57400840    -0.20840
C1472       C  0.52309891  0.86505002  0.57929668    -0.08880
C1473       C  0.54177627  0.90681896  0.59095293     0.29970
C1474       C  0.50964587  0.94563598  0.59333784    -0.20840
C1475       C  0.96537664  0.94804822  0.57568361    -0.08900
C1476       C  0.94324388  0.90584777  0.56847005     0.29980
F1477       F  0.89496176  0.90278953  0.55761686    -0.19420
H1478       H  0.94829415  0.83546774  0.57288948     0.18350
H1479       H  0.52336236  0.97544768  0.60530491     0.18350
F1480       F  0.59099931  0.91142035  0.59948846    -0.19410
C1481       C  0.76779402  0.79169716  0.47610193    -0.20840
C1482       C  0.72473932  0.79501016  0.45713399    -0.08880
C1483       C  0.72059198  0.75916268  0.43491682     0.29970
C1484       C  0.74760528  0.71849996  0.43738985    -0.20840
C1485       C  0.78504230  0.71260469  0.45939903    -0.08900
C1486       C  0.79786112  0.75177736  0.47705210     0.29980
F1487       F  0.83981805  0.75266292  0.49478322    -0.19420
H1488       H  0.77682507  0.81987846  0.49133913     0.18350
H1489       H  0.74009802  0.69153334  0.42098410     0.18350
F1490       F  0.69388766  0.76305325  0.40928302    -0.19410
C1491       C  0.76603573  0.87957769  0.44298041    -0.20840
C1492       C  0.71839688  0.88144147  0.45847405    -0.08880
C1493       C  0.70270805  0.92459355  0.47127481     0.29970
C1494       C  0.73308974  0.96202365  0.46932913    -0.20840
C1495       C  0.78110784  0.95947027  0.45497624    -0.08900
C1496       C  0.79792141  0.91663277  0.44284845     0.29980
F1497       F  0.84539279  0.91006981  0.43077202    -0.19420
H1498       H  0.78014319  0.84874520  0.43136920     0.18350
H1499       H  0.71909286  0.99330813  0.48044928     0.18350
F1500       F  0.65880686  0.93239381  0.48671048    -0.19410
C1501       C  0.89368102  0.70284160  0.43599722    -0.20840
C1502       C  0.85264711  0.67341677  0.43128224    -0.08880
C1503       C  0.83896042  0.66210349  0.40113446     0.29970
C1504       C  0.86599919  0.67894002  0.37742162    -0.20840
C1505       C  0.90645903  0.70769346  0.38299495    -0.08900
C1506       C  0.92053629  0.71908918  0.41236643     0.29980
F1507       F  0.95889190  0.74783914  0.41825746    -0.19420
H1508       H  0.90406036  0.71495383  0.45828468     0.18350
H1509       H  0.85483323  0.67004186  0.35464977     0.18350
F1510       F  0.79787352  0.97038710  0.39413408    -0.19410
C1511       C  0.82243233  0.00327623  0.51522220    -0.20840
C1512       C  0.84638291  0.99247491  0.48744796    -0.08880
C1513       C  0.89601071  0.97194398  0.48791503     0.29970
C1514       C  0.92333239  0.97062803  0.51459293    -0.20840
C1515       C  0.90197424  0.98793126  0.54199726    -0.08900
C1516       C  0.84978725  0.00291090  0.54191481     0.29980
F1517       F  0.82521909  0.02084527  0.56666719    -0.19420
H1518       H  0.78313558  0.01597432  0.51616756     0.18350
H1519       H  0.96258217  0.62427409  0.51371601     0.18350
F1520       F  0.91914839  0.62060862  0.46266361    -0.19410
C1521       C  0.64117448  0.83179743  0.60537912    -0.20840
C1522       C  0.59077540  0.81663841  0.60151837    -0.08880
C1523       C  0.56859927  0.79629950  0.62597122     0.29970
C1524       C  0.59835581  0.78423398  0.65035689    -0.20840
C1525       C  0.64978382  0.79564020  0.65228345    -0.08900
C1526       C  0.67016252  0.82161852  0.63029324     0.29980
F1527       F  0.71898229  0.83567993  0.63207881    -0.19420
H1528       H  0.65898688  0.85127705  0.58886604     0.18350
H1529       H  0.58113238  0.76592980  0.66775189     0.18350
F1530       F  0.51856540  0.78634766  0.62583220    -0.19410
C1531       C  0.88304753  0.73286363  0.63883411    -0.20840
C1532       C  0.84989720  0.70268448  0.65083589    -0.08880
C1533       C  0.84763780  0.65918540  0.63730236     0.29970
C1534       C  0.87675434  0.98019180  0.61180616    -0.20840
C1535       C  0.90937079  0.67722537  0.59847172    -0.08900
C1536       C  0.91206479  0.72081098  0.61314608     0.29980
F1537       F  0.94005548  0.75353006  0.60256832    -0.19420
H1538       H  0.88512814  0.76686428  0.64871630     0.18350
H1539       H  0.87183010  0.94680323  0.60199533     0.18350
F1540       F  0.81654237  0.96181518  0.64833389    -0.19410
C1541       C  0.68195665  0.86978388  0.91164329    -0.20840
C1542       C  0.65832100  0.87297663  0.88395411    -0.08880
C1543       C  0.60761688  0.85984362  0.88056052     0.29970
C1544       C  0.58128005  0.84356888  0.90477811    -0.20840
C1545       C  0.60417547  0.84098935  0.93332628    -0.08900
C1546       C  0.65528581  0.85596822  0.93621856     0.29980
F1547       F  0.67893031  0.86240906  0.96289076    -0.19420
H1548       H  0.72065113  0.88107634  0.91483306     0.18350
H1549       H  0.54170940  0.83481314  0.90163221     0.18350
F1550       F  0.58353585  0.86276422  0.85392520    -0.19410
C1551       C  0.87038772  0.02923334  0.92053006    -0.20840
C1552       C  0.91346026  0.00089271  0.92584873    -0.08880
C1553       C  0.93068139  0.97165959  0.90133586     0.29970
C1554       C  0.89835235  0.96161841  0.87745976    -0.20840
C1555       C  0.84968300  0.98238220  0.87609911    -0.08900
C1556       C  0.83734288  0.01884255  0.89659291     0.29980
F1557       F  0.79240812  0.70939548  0.89455485    -0.19420
H1558       H  0.85950487  0.72318055  0.93657802     0.18350
H1559       H  0.91089348  0.93608543  0.86055922     0.18350
F1560       F  0.97818505  0.95161558  0.90032521    -0.19410
loop_ 
_geom_bond_atom_site_label_1 
_geom_bond_atom_site_label_2 
_geom_bond_distance 
_geom_bond_site_symmetry_2 
_ccdc_geom_bond_type 
In1           O3   2.252       .  S
In1           O4   2.219       .  S
In1          O12   2.220       .  S
In1           O6   2.264       .  S
In1           O8   2.264       .  S
In1           O9   2.250       .  S
In1          O10   2.203       .  S
In1          O13   2.211       .  S
C2            O8   1.267       .  A
C2           O10   1.258       .  A
C2          C280   1.460       .  S
O3           C11   1.266       .  A
O4           C11   1.266       .  A
C5           O12   1.261       .  A
C5            O6   1.268       .  A
C5          C242   1.475       .  S
C7            O9   1.263       .  A
C7           O13   1.259       .  A
C7           C15   1.455       .  S
C11         C255   1.481       .  S
In14         O16   2.214       .  S
In14         O17   2.253       .  S
In14         O25   2.235       .  S
In14         O19   2.245       .  S
In14         O21   2.253       .  S
In14         O22   2.263       .  S
In14         O23   2.211       .  S
In14         O26   2.212       .  S
C15          O21   1.263       .  A
C15          O23   1.258       .  A
O16          C24   1.260       .  A
O17          C24   1.267       .  A
C18          O25   1.264       .  A
C18          O19   1.265       .  A
C18         C232   1.481       .  S
C20          O22   1.263       .  A
C20          O26   1.259       .  A
C20         C522   1.460   1_545  S
C24         C225   1.475       .  S
C27         C195   1.558       .  S
C27         C212   1.552       .  S
C27         C445   1.560       .  S
C27         C462   1.552       .  S
C28         C175   1.570       .  S
C28         C215   1.553       .  S
C28         C422   1.585       .  S
C28         C495   1.569       .  S
C29         C132   1.556       .  S
C29         C155   1.570       .  S
C29         C665   1.552   1_545  S
C29         C772   1.562       .  S
C30         C102   1.564   1_565  S
C30         C152   1.563       .  S
C30         C632   1.560       .  S
C30         C645   1.572       .  S
In31         O33   2.239   1_655  S
In31         O34   2.233   1_655  S
In31         O39   2.254   1_655  S
In31         O40   2.203   1_655  S
In31        O822   2.214       .  S
In31        O816   2.249       .  S
In31        O818   2.259       .  S
In31        O823   2.211       .  S
C32          O40   1.261   1_655  A
C32         O818   1.267       .  A
C32          C45   1.460       .  S
O33          C41   1.263       .  A
O34          C41   1.266       .  A
C35          O42   1.260       .  A
C35          O36   1.268       .  A
C35         C205   1.463       .  S
O36        In811   2.249       .  S
C37          O39   1.265   1_655  A
C37         O823   1.259       .  A
C37         C570   1.459   1_545  S
O38        In811   2.259       .  S
O38         C812   1.267       .  A
C41          C95   1.466       .  S
O42        In811   2.214       .  S
O43        In811   2.211       .  S
O43         C817   1.259       .  A
In44         O46   2.230   1_655  S
In44         O47   2.228   1_655  S
In44         O52   2.248   1_655  S
In44         O53   2.203   1_655  S
In44        O835   2.239       .  S
In44        O829   2.257       .  S
In44        O831   2.262       .  S
In44        O836   2.211       .  S
C45          O53   1.259   1_655  A
C45         O831   1.267       .  A
O46          C54   1.259       .  A
O47          C54   1.265       .  A
C48          O55   1.258       .  A
C48          O49   1.265       .  A
C48         C122   1.473       .  S
O49        In824   2.257       .  S
C50          O52   1.265   1_655  A
C50         O836   1.262       .  A
C50         C297   1.459       .  S
O51        In824   2.262       .  S
O51         C825   1.267       .  A
C54          C85   1.463       .  S
O55        In824   2.239       .  S
O56        In824   2.211       .  S
O56         C830   1.262       .  A
C57          C75   1.550       .  S
C57         C135   1.560       .  S
C57         C142   1.559       .  S
C57         C245   1.561       .  S
C58          C72   1.576       .  S
C58          C82   1.563       .  S
C58         C105   1.569       .  S
C58         C115   1.557       .  S
C59          C62   1.586       .  S
C59          C92   1.552       .  S
C59         C182   1.583       .  S
C59         C192   1.584       .  S
C60          C65   1.559       .  S
C60         C165   1.573       .  S
C60         C172   1.576       .  S
C60         C222   1.563       .  S
C61          C62   1.413       .  A
C61          C66   1.389       .  A
C61          H68   1.070       .  S
C62          C63   1.429       .  A
C63          C64   1.405       .  A
C63          F70   1.359       .  S
C64          C65   1.409       .  A
C64          H69   1.082       .  S
C65          C66   1.415       .  A
C66          F67   1.354       .  S
C71          C72   1.417       .  A
C71          C76   1.404   1_554  A
C71          H78   1.082       .  S
C72          C73   1.424       .  A
C73          C74   1.388       .  A
C73          F80   1.354       .  S
C74          C75   1.404   1_554  A
C74          H79   1.081       .  S
C75          C76   1.415       .  A
C76          F77   1.357       .  S
C81          C82   1.415       .  A
C81          C86   1.404       .  A
C81          H88   1.078       .  S
C82          C83   1.430       .  A
C83          C84   1.384       .  A
C83          F90   1.360       .  S
C84          C85   1.389       .  A
C84          H89   1.084       .  S
C85          C86   1.404       .  A
C86          F87   1.357       .  S
C91          C92   1.417       .  A
C91          C96   1.405       .  A
C91          H98   1.081       .  S
C92          C93   1.424       .  A
C93          C94   1.390       .  A
C93         F100   1.358       .  S
C94          C95   1.393       .  A
C94          H99   1.083       .  S
C95          C96   1.402       .  A
C96          F97   1.357       .  S
C101        C102   1.404       .  A
C101        C106   1.392       .  A
C101        H108   1.083       .  S
C102        C103   1.426       .  A
C103        C104   1.404       .  A
C103        F110   1.355   1_545  S
C104        C105   1.409       .  A
C104        H109   1.083       .  S
C105        C106   1.428       .  A
C106        F107   1.354       .  S
C111        C112   1.411       .  A
C111        C116   1.377       .  A
C111        H118   1.082       .  S
C112        C290   1.560       .  S
C112        C113   1.424       .  A
C113        C114   1.402       .  A
C113        F120   1.351       .  S
C114        C115   1.410       .  A
C114        H119   1.076       .  S
C115        C116   1.417       .  A
C116        F117   1.359       .  S
C121        C122   1.397       .  A
C121        C126   1.397       .  A
C121        H128   1.083       .  S
C122        C123   1.401       .  A
C123        C124   1.401       .  A
C123        F130   1.358       .  S
C124        C125   1.418       .  A
C124        H389   1.077       .  S
C125        C290   1.572       .  S
C125        C126   1.423       .  A
C126        F127   1.358       .  S
H129        C644   1.077       .  S
C131        C136   1.406       .  A
C131        C912   1.417   1_455  A
C131        H138   1.081       .  S
C132        C133   1.411       .  A
C132        C911   1.417       .  A
C133        C134   1.387       .  A
C133        F140   1.356       .  S
C134        C915   1.414       .  A
C134        H139   1.079       .  S
C135        C136   1.413       .  A
C135        C914   1.414   1_455  A
C136        F137   1.355       .  S
C141        C146   1.388       .  A
C141        C922   1.412       .  A
C141        H148   1.079       .  S
C142        C143   1.416       .  A
C142        C921   1.412   1_455  A
C143        C144   1.396       .  A
C143        F150   1.355       .  S
C144        C925   1.410   1_455  A
C144        H149   1.080       .  S
C145        C289   1.552       .  S
C145        C146   1.413       .  A
C145        C924   1.410       .  A
C146        F147   1.359       .  S
C151        C152   1.411       .  A
C151        C156   1.391   1_565  A
C151        H158   1.079       .  S
C152        C153   1.414       .  A
C153        C154   1.405   1_564  A
C153        F160   1.358   1_565  S
C154        C155   1.416       .  A
C154        H159   1.074   1_545  S
C155        C156   1.419   1_556  A
C156        F157   1.357       .  S
C161        C162   1.422       .  A
C161        C166   1.409       .  A
C161        H168   1.081       .  S
C162        C548   1.585   1_545  S
C162        C943   1.412       .  A
C163        C164   1.395       .  A
C163        C942   1.412   1_455  A
C163        F170   1.355   1_545  S
C164        C165   1.414       .  A
C164        H169   1.077       .  S
C165        C946   1.418   1_455  A
C166        C945   1.418       .  A
C166        F167   1.358       .  S
C171        C176   1.401       .  A
C171        C952   1.410       .  A
C171        H178   1.073       .  S
C172        C173   1.422       .  A
C172        C951   1.410   1_455  A
C173        C174   1.402       .  A
C173        F180   1.352       .  S
C174        C955   1.405   1_455  A
C174        H179   1.082       .  S
C175        C176   1.421       .  A
C175        C954   1.405       .  A
C176        F177   1.357       .  S
C181        C182   1.416       .  A
C181        C186   1.403       .  A
C181        H188   1.083       .  S
C182        C183   1.424       .  A
C183        C184   1.389       .  A
C183        F190   1.355       .  S
C184        C185   1.405       .  A
C184        H189   1.080       .  S
C185        C547   1.560       .  S
C185        C186   1.421       .  A
C186        F187   1.356       .  S
C191        C192   1.423       .  A
C191        C196   1.405       .  A
C191        H198   1.081       .  S
C192        C193   1.422       .  A
C193        C194   1.397       .  A
C193        F200   1.345       .  S
C194        C195   1.407       .  A
C194        H199   1.082       .  S
C195        C196   1.411       .  A
C196        F197   1.356       .  S
C201        C202   1.417       .  A
C201        C206   1.390       .  A
C201        H208   1.081       .  S
C202        C547   1.552       .  S
C202        C203   1.424   1_545  A
C203        C204   1.402   1_565  A
C203        F730   1.355       .  S
C204        C205   1.397       .  A
C204        H209   1.083       .  S
C205        C206   1.394       .  A
C206        F207   1.357       .  S
F210        C463   1.355       .  S
C211        C212   1.409       .  A
C211        C216   1.396       .  A
C211        H218   1.082       .  S
C212        C213   1.415       .  A
C213        C214   1.396       .  A
C213        F480   1.356       .  S
C214        C215   1.411       .  A
C214        H479   1.083       .  S
C215        C216   1.420       .  A
C216        F217   1.354       .  S
H219        C734   1.083       .  S
F220        C733   1.356       .  S
C221        C222   1.415       .  A
C221        C226   1.393       .  A
C221        H228   1.081       .  S
C222        C223   1.416       .  A
C223        C224   1.399       .  A
C223        F230   1.351       .  S
C224        C225   1.399       .  A
C224        H229   1.083       .  S
C225        C226   1.404       .  A
C226        F227   1.358       .  S
C231        C232   1.399       .  A
C231        C236   1.400       .  A
C231        H238   1.084       .  S
C232        C233   1.400   1_545  A
C233        C754   1.397       .  A
C233        F760   1.358       .  S
C234        C493   1.397       .  A
C234        C495   1.420       .  A
C234        H239   1.075       .  S
C235        C548   1.569   1_545  S
C235        C236   1.424       .  A
C235        C754   1.420   1_545  A
C236        F237   1.346       .  S
F240        C493   1.358       .  S
C241        C242   1.395       .  A
C241        C246   1.393       .  A
C241        H248   1.084       .  S
C242        C243   1.401       .  A
C243        C244   1.404       .  A
C243        F250   1.357       .  S
C244        C245   1.419       .  A
C244        H249   1.083       .  S
C245        C246   1.427       .  A
C246        F247   1.354       .  S
C251        C252   1.411       .  A
C251        C256   1.406       .  A
C251        H518   1.083       .  S
C252        C289   1.562       .  S
C252        C253   1.424       .  A
C253        C254   1.390       .  A
C253        F260   1.358       .  S
C254        C255   1.397       .  A
C254        H259   1.083       .  S
C255        C256   1.408       .  A
C256        F517   1.357       .  S
F257        C776   1.357       .  S
H258        C771   1.083       .  S
In261       O263   2.252       .  S
In261       O264   2.219       .  S
In261       O272   2.220       .  S
In261       O266   2.264       .  S
In261       O268   2.264       .  S
In261       O269   2.250       .  S
In261       O270   2.203       .  S
In261       O273   2.211       .  S
C262        O268   1.267       .  A
C262        O270   1.258       .  A
C262        C540   1.460       .  S
O263        C271   1.266       .  A
O264        C271   1.266       .  A
C265        O272   1.261       .  A
C265        O266   1.268       .  A
C265        C502   1.475       .  S
C267        O269   1.263       .  A
C267        O273   1.259       .  A
C267        C275   1.455       .  S
C271        C515   1.481       .  S
In274       O276   2.214       .  S
In274       O277   2.253       .  S
In274       O285   2.235       .  S
In274       O279   2.245       .  S
In274       O281   2.253       .  S
In274       O282   2.263       .  S
In274       O283   2.211       .  S
In274       O286   2.212       .  S
C275        O281   1.263       .  A
C275        O283   1.258       .  A
O276        C284   1.260       .  A
O277        C284   1.267       .  A
C278        O285   1.264       .  A
C278        O279   1.265       .  A
C278        C492   1.481       .  S
C280        O282   1.263       .  A
C280        O286   1.259       .  A
C284        C485   1.475       .  S
C287        C705   1.560       .  S
C287        C455   1.558       .  S
C287        C722   1.552       .  S
C287        C472   1.552       .  S
C288        C682   1.585       .  S
C288        C435   1.570       .  S
C288        C475   1.553       .  S
C288        C755   1.569       .  S
C289        C392   1.556       .  S
C289        C415   1.570       .  S
C290        C362   1.564       .  S
C290        C412   1.563       .  S
In291       O293   2.239   1_655  S
In291       O294   2.233   1_655  S
In291      O1082   2.214       .  S
In291      O1076   2.249       .  S
In291      O1078   2.259       .  S
In291       O299   2.254   1_655  S
In291       O300   2.203   1_655  S
In291      O1083   2.211       .  S
C292       O1078   1.267       .  A
C292        O300   1.261   1_655  A
C292        C305   1.460       .  S
O293        C301   1.263       .  A
O294        C301   1.266       .  A
C295        O302   1.260       .  A
C295        O296   1.268       .  A
C295        C465   1.463       .  S
O296      In1071   2.249       .  S
C297        O299   1.265   1_655  A
C297       O1083   1.259       .  A
O298      In1071   2.259       .  S
O298       C1072   1.267       .  A
C301        C355   1.466       .  S
O302      In1071   2.214       .  S
O303      In1071   2.211       .  S
O303       C1077   1.259       .  A
In304       O306   2.230   1_655  S
In304       O307   2.228   1_655  S
In304      O1095   2.239       .  S
In304      O1089   2.257       .  S
In304      O1091   2.262       .  S
In304       O312   2.248   1_655  S
In304       O313   2.203   1_655  S
In304      O1096   2.211       .  S
C305       O1091   1.267       .  A
C305        O313   1.259   1_655  A
O306        C314   1.259       .  A
O307        C314   1.265       .  A
C308        O315   1.258       .  A
C308        O309   1.265       .  A
C308        C382   1.473       .  S
O309      In1084   2.257       .  S
C310        O312   1.265   1_655  A
C310       O1096   1.262       .  A
C310        C557   1.459       .  S
O311      In1084   2.262       .  S
O311       C1085   1.267       .  A
C314        C345   1.463       .  S
O315      In1084   2.239       .  S
O316      In1084   2.211       .  S
O316       C1090   1.262       .  A
C317        C335   1.550       .  S
C317        C395   1.560       .  S
C317        C402   1.559       .  S
C317        C505   1.561       .  S
C318        C332   1.576       .  S
C318        C342   1.563       .  S
C318        C365   1.569       .  S
C318        C375   1.557       .  S
C319        C322   1.586       .  S
C319        C352   1.552       .  S
C319        C442   1.583       .  S
C319        C452   1.584       .  S
C320        C325   1.559       .  S
C320        C425   1.573       .  S
C320        C432   1.576       .  S
C320        C482   1.563       .  S
C321        C322   1.413       .  A
C321        C326   1.389       .  A
C321        H328   1.070       .  S
C322        C323   1.429       .  A
C323        C324   1.405       .  A
C323        F330   1.359       .  S
C324        C325   1.409       .  A
C324        H329   1.082       .  S
C325        C326   1.415       .  A
C326        F327   1.354       .  S
C331        C332   1.417       .  A
C331        C336   1.404   1_554  A
C331        H338   1.082       .  S
C332        C333   1.424       .  A
C333        C334   1.388       .  A
C333        F340   1.354       .  S
C334        C335   1.404   1_554  A
C334        H339   1.081       .  S
C335        C336   1.415       .  A
C336        F337   1.357       .  S
C341        C342   1.415       .  A
C341        C346   1.404       .  A
C341        H348   1.078       .  S
C342        C343   1.430       .  A
C343        C344   1.384       .  A
C343        F350   1.360       .  S
C344        C345   1.389       .  A
C344        H349   1.084       .  S
C345        C346   1.404       .  A
C346        F347   1.357       .  S
C351        C352   1.417       .  A
C351        C356   1.405       .  A
C351        H358   1.081       .  S
C352        C353   1.424       .  A
C353        C354   1.390       .  A
C353        F360   1.358       .  S
C354        C355   1.393       .  A
C354        H359   1.083       .  S
C355        C356   1.402       .  A
C356        F357   1.357       .  S
C361        C362   1.404       .  A
C361        C366   1.392       .  A
C361        H368   1.083       .  S
C362        C363   1.426       .  A
C363        C364   1.404       .  A
C363        F370   1.355       .  S
C364        C365   1.409       .  A
C364        H369   1.083       .  S
C365        C366   1.428       .  A
C366        F367   1.354       .  S
C371        C372   1.411       .  A
C371        C376   1.377       .  A
C371        H378   1.082       .  S
C372        C550   1.559       .  S
C372        C373   1.424       .  A
C373        C374   1.402       .  A
C373        F380   1.351       .  S
C374        C375   1.410       .  A
C374        H379   1.076       .  S
C375        C376   1.417       .  A
C376        F377   1.359       .  S
C381        C382   1.397       .  A
C381        C386   1.397       .  A
C381        H388   1.083       .  S
C382        C383   1.401       .  A
C383        C384   1.401       .  A
C383        F390   1.358       .  S
C384        C385   1.418       .  A
C384        H649   1.077       .  S
C385        C550   1.572       .  S
C385        C386   1.423       .  A
C386        F387   1.358       .  S
C391       C1172   1.417   1_455  A
C391        C396   1.406       .  A
C391        H398   1.081       .  S
C392       C1171   1.417       .  A
C392        C393   1.411       .  A
C393        C394   1.387       .  A
C393        F400   1.356       .  S
C394       C1175   1.414       .  A
C394        H399   1.079       .  S
C395       C1174   1.414   1_455  A
C395        C396   1.413       .  A
C396        F397   1.355       .  S
C401       C1182   1.412       .  A
C401        C406   1.388       .  A
C401        H408   1.079       .  S
C402       C1181   1.412   1_455  A
C402        C403   1.416       .  A
C403        C404   1.396       .  A
C403        F410   1.355       .  S
C404       C1185   1.410   1_455  A
C404        H409   1.080       .  S
C405        C549   1.552       .  S
C405       C1184   1.410       .  A
C405        C406   1.413       .  A
C406        F407   1.359       .  S
C411        C412   1.411       .  A
C411        C416   1.391       .  A
C411        H418   1.079       .  S
C412        C413   1.414       .  A
C413        C414   1.405   1_554  A
C413        F420   1.358       .  S
C414        C415   1.416       .  A
C414        H419   1.074       .  S
C415        C416   1.419   1_556  A
C416        F417   1.357       .  S
C421        C422   1.422       .  A
C421        C426   1.409       .  A
C421        H428   1.081       .  S
C422       C1203   1.412       .  A
C423       C1202   1.412   1_455  A
C423        C424   1.395       .  A
C423        F430   1.355       .  S
C424        C425   1.414       .  A
C424        H429   1.077       .  S
C425       C1206   1.418   1_455  A
C426       C1205   1.418       .  A
C426        F427   1.358       .  S
C431       C1212   1.410       .  A
C431        C436   1.401       .  A
C431        H438   1.073       .  S
C432       C1211   1.410   1_455  A
C432        C433   1.422       .  A
C433        C434   1.402       .  A
C433        F440   1.352       .  S
C434       C1215   1.405   1_455  A
C434        H439   1.082       .  S
C435       C1214   1.405       .  A
C435        C436   1.421       .  A
C436        F437   1.357       .  S
C441        C442   1.416       .  A
C441        C446   1.403       .  A
C441        H448   1.083       .  S
C442        C443   1.424       .  A
C443        C444   1.389       .  A
C443        F450   1.355       .  S
C444        C445   1.405       .  A
C444        H449   1.080       .  S
C445        C446   1.421       .  A
C446        F447   1.356       .  S
C451        C452   1.423       .  A
C451        C456   1.405       .  A
C451        H458   1.081       .  S
C452        C453   1.422       .  A
C453        C454   1.397       .  A
C453        F460   1.345       .  S
C454        C455   1.407       .  A
C454        H459   1.082       .  S
C455        C456   1.411       .  A
C456        F457   1.356       .  S
C461        C462   1.417       .  A
C461        C466   1.390       .  A
C461        H468   1.081       .  S
C462        C463   1.424       .  A
C463        C464   1.402       .  A
C464        C465   1.397       .  A
C464        H469   1.083       .  S
C465        C466   1.394       .  A
C466        F467   1.357       .  S
F470        C723   1.355       .  S
C471        C472   1.409       .  A
C471        C476   1.396       .  A
C471        H478   1.082       .  S
C472        C473   1.415       .  A
C473        C474   1.396       .  A
C473        F740   1.356       .  S
C474        C475   1.411       .  A
C474        H739   1.083       .  S
C475        C476   1.420       .  A
C476        F477   1.354       .  S
C481        C482   1.415       .  A
C481        C486   1.393       .  A
C481        H488   1.081       .  S
C482        C483   1.416       .  A
C483        C484   1.399       .  A
C483        F490   1.351       .  S
C484        C485   1.399       .  A
C484        H489   1.083       .  S
C485        C486   1.404       .  A
C486        F487   1.358       .  S
C491        C492   1.399       .  A
C491        C496   1.400       .  A
C491        H498   1.084       .  S
C492        C493   1.400       .  A
C494        C753   1.397       .  A
C494        C755   1.420       .  A
C494        H499   1.075       .  S
C495        C496   1.424       .  A
C496        F497   1.346       .  S
F500        C753   1.358       .  S
C501        C502   1.395       .  A
C501        C506   1.393       .  A
C501        H508   1.084       .  S
C502        C503   1.401       .  A
C503        C504   1.404       .  A
C503        F510   1.357       .  S
C504        C505   1.419       .  A
C504        H509   1.083       .  S
C505        C506   1.427       .  A
C506        F507   1.354       .  S
C511        C512   1.411       .  A
C511        C516   1.406       .  A
C511        H778   1.083       .  S
C512        C549   1.562       .  S
C512        C513   1.424       .  A
C513        C514   1.390       .  A
C513        F520   1.358       .  S
C514        C515   1.397       .  A
C514        H519   1.083       .  S
C515        C516   1.408       .  A
C516        F777   1.357       .  S
In521       O523   2.252       .  S
In521       O524   2.219       .  S
In521       O532   2.220       .  S
In521       O526   2.264       .  S
In521       O528   2.264       .  S
In521       O529   2.250       .  S
In521       O530   2.203       .  S
In521       O533   2.211       .  S
C522        O528   1.267       .  A
C522        O530   1.258       .  A
O523        C531   1.266       .  A
O524        C531   1.266       .  A
C525        O532   1.261       .  A
C525        O526   1.268       .  A
C525        C762   1.475       .  S
C527        O529   1.263       .  A
C527        O533   1.259       .  A
C527        C535   1.455       .  S
C531        C775   1.481       .  S
In534       O536   2.214       .  S
In534       O537   2.253       .  S
In534       O545   2.235       .  S
In534       O539   2.245       .  S
In534       O541   2.253       .  S
In534       O542   2.263       .  S
In534       O543   2.211       .  S
In534       O546   2.212       .  S
C535        O541   1.263       .  A
C535        O543   1.258       .  A
O536        C544   1.260       .  A
O537        C544   1.267       .  A
C538        O545   1.264       .  A
C538        O539   1.265       .  A
C538        C752   1.481       .  S
C540        O542   1.263       .  A
C540        O546   1.259       .  A
C544        C745   1.475       .  S
C547        C715   1.558   1_545  S
C547        C732   1.552   1_545  S
C548        C695   1.570       .  S
C548        C735   1.553       .  S
C549        C652   1.556       .  S
C549        C675   1.570       .  S
C550        C622   1.564       .  S
C550        C672   1.563       .  S
In551       O553   2.239   1_655  S
In551       O554   2.233   1_655  S
In551      O1342   2.214       .  S
In551      O1336   2.249       .  S
In551      O1338   2.259       .  S
In551       O559   2.254   1_655  S
In551       O560   2.203   1_655  S
In551      O1343   2.211       .  S
C552       O1338   1.267       .  A
C552        O560   1.261   1_655  A
C552        C565   1.460       .  S
O553        C561   1.263       .  A
O554        C561   1.266       .  A
C555        O562   1.260       .  A
C555        O556   1.268       .  A
C555        C725   1.463       .  S
O556      In1331   2.249       .  S
C557        O559   1.265   1_655  A
C557       O1343   1.259       .  A
O558      In1331   2.259       .  S
O558       C1332   1.267       .  A
C561        C615   1.466       .  S
O562      In1331   2.214       .  S
O563      In1331   2.211       .  S
O563       C1337   1.259       .  A
In564       O566   2.230   1_655  S
In564       O567   2.228   1_655  S
In564      O1355   2.239       .  S
In564      O1349   2.257       .  S
In564      O1351   2.262       .  S
In564       O572   2.248   1_655  S
In564       O573   2.203   1_655  S
In564      O1356   2.211       .  S
C565       O1351   1.267       .  A
C565        O573   1.259   1_655  A
O566        C574   1.259       .  A
O567        C574   1.265       .  A
C568        O575   1.258       .  A
C568        O569   1.265       .  A
C568        C642   1.473       .  S
O569      In1344   2.257       .  S
C570        O572   1.265   1_655  A
C570       O1356   1.262       .  A
O571      In1344   2.262       .  S
O571       C1345   1.267       .  A
C574        C605   1.463       .  S
O575      In1344   2.239       .  S
O576      In1344   2.211       .  S
O576       C1350   1.262       .  A
C577        C595   1.550       .  S
C577        C655   1.560       .  S
C577        C662   1.559       .  S
C577        C765   1.561       .  S
C578        C592   1.576       .  S
C578        C602   1.563       .  S
C578        C625   1.569       .  S
C578        C635   1.557       .  S
C579        C582   1.586       .  S
C579        C612   1.552       .  S
C579        C702   1.583       .  S
C579        C712   1.584       .  S
C580        C585   1.559       .  S
C580        C685   1.573       .  S
C580        C692   1.576       .  S
C580        C742   1.563       .  S
C581        C582   1.413       .  A
C581        C586   1.389       .  A
C581        H588   1.070       .  S
C582        C583   1.429       .  A
C583        C584   1.405       .  A
C583        F590   1.359       .  S
C584        C585   1.409       .  A
C584        H589   1.082       .  S
C585        C586   1.415       .  A
C586        F587   1.354       .  S
C591        C592   1.417       .  A
C591        C596   1.404   1_554  A
C591        H598   1.082       .  S
C592        C593   1.424       .  A
C593        C594   1.388       .  A
C593        F600   1.354       .  S
C594        C595   1.404   1_554  A
C594        H599   1.081       .  S
C595        C596   1.415       .  A
C596        F597   1.357       .  S
C601        C602   1.415       .  A
C601        C606   1.404       .  A
C601        H608   1.078       .  S
C602        C603   1.430       .  A
C603        C604   1.384       .  A
C603        F610   1.360       .  S
C604        C605   1.389       .  A
C604        H609   1.084       .  S
C605        C606   1.404       .  A
C606        F607   1.357       .  S
C611        C612   1.417       .  A
C611        C616   1.405       .  A
C611        H618   1.081       .  S
C612        C613   1.424       .  A
C613        C614   1.390       .  A
C613        F620   1.358       .  S
C614        C615   1.393       .  A
C614        H619   1.083       .  S
C615        C616   1.402       .  A
C616        F617   1.357       .  S
C621        C622   1.404       .  A
C621        C626   1.392       .  A
C621        H628   1.083       .  S
C622        C623   1.426       .  A
C623        C624   1.404       .  A
C623        F630   1.355       .  S
C624        C625   1.409       .  A
C624        H629   1.083       .  S
C625        C626   1.428       .  A
C626        F627   1.354       .  S
C631        C632   1.411       .  A
C631        C636   1.377       .  A
C631        H638   1.082       .  S
C632        C633   1.424       .  A
C633        C634   1.402       .  A
C633        F640   1.351       .  S
C634        C635   1.410       .  A
C634        H639   1.076       .  S
C635        C636   1.417       .  A
C636        F637   1.359       .  S
C641        C642   1.397       .  A
C641        C646   1.397       .  A
C641        H648   1.083       .  S
C642        C643   1.401       .  A
C643        C644   1.401   1_565  A
C643        F650   1.358   1_565  S
C644        C645   1.418   1_545  A
C645        C646   1.423       .  A
C646        F647   1.358       .  S
C651       C1432   1.417   1_455  A
C651        C656   1.406       .  A
C651        H658   1.081       .  S
C652       C1431   1.417       .  A
C652        C653   1.411       .  A
C653        C654   1.387       .  A
C653        F660   1.356       .  S
C654       C1435   1.414       .  A
C654        H659   1.079       .  S
C655       C1434   1.414   1_455  A
C655        C656   1.413       .  A
C656        F657   1.355       .  S
C661       C1442   1.412       .  A
C661        C666   1.388       .  A
C661        H668   1.079       .  S
C662       C1441   1.412   1_455  A
C662        C663   1.416       .  A
C663        C664   1.396       .  A
C663        F670   1.355       .  S
C664       C1445   1.410   1_455  A
C664        H669   1.080       .  S
C665       C1444   1.410       .  A
C665        C666   1.413       .  A
C666        F667   1.359       .  S
C671        C672   1.411       .  A
C671        C676   1.391       .  A
C671        H678   1.079       .  S
C672        C673   1.414       .  A
C673        C674   1.405   1_554  A
C673        F680   1.358       .  S
C674        C675   1.416       .  A
C674        H679   1.074       .  S
C675        C676   1.419   1_556  A
C676        F677   1.357       .  S
C681        C682   1.422       .  A
C681        C686   1.409       .  A
C681        H688   1.081       .  S
C682       C1463   1.412       .  A
C683       C1462   1.412   1_455  A
C683        C684   1.395       .  A
C683        F690   1.355       .  S
C684        C685   1.414       .  A
C684        H689   1.077       .  S
C685       C1466   1.418   1_455  A
C686       C1465   1.418       .  A
C686        F687   1.358       .  S
C691       C1472   1.410       .  A
C691        C696   1.401       .  A
C691        H698   1.073       .  S
C692       C1471   1.410   1_455  A
C692        C693   1.422       .  A
C693        C694   1.402       .  A
C693        F700   1.352       .  S
C694       C1475   1.405   1_455  A
C694        H699   1.082       .  S
C695       C1474   1.405       .  A
C695        C696   1.421       .  A
C696        F697   1.357       .  S
C701        C702   1.416       .  A
C701        C706   1.403       .  A
C701        H708   1.083       .  S
C702        C703   1.424       .  A
C703        C704   1.389       .  A
C703        F710   1.355       .  S
C704        C705   1.405       .  A
C704        H709   1.080       .  S
C705        C706   1.421       .  A
C706        F707   1.356       .  S
C711        C712   1.423       .  A
C711        C716   1.405       .  A
C711        H718   1.081       .  S
C712        C713   1.422       .  A
C713        C714   1.397       .  A
C713        F720   1.345       .  S
C714        C715   1.407       .  A
C714        H719   1.082       .  S
C715        C716   1.411       .  A
C716        F717   1.356       .  S
C721        C722   1.417       .  A
C721        C726   1.390       .  A
C721        H728   1.081       .  S
C722        C723   1.424       .  A
C723        C724   1.402       .  A
C724        C725   1.397       .  A
C724        H729   1.083       .  S
C725        C726   1.394       .  A
C726        F727   1.357       .  S
C731        C732   1.409   1_545  A
C731        C736   1.396       .  A
C731        H738   1.082       .  S
C732        C733   1.415       .  A
C733        C734   1.396       .  A
C734        C735   1.411       .  A
C735        C736   1.420   1_565  A
C736        F737   1.354       .  S
C741        C742   1.415       .  A
C741        C746   1.393       .  A
C741        H748   1.081       .  S
C742        C743   1.416       .  A
C743        C744   1.399       .  A
C743        F750   1.351       .  S
C744        C745   1.399       .  A
C744        H749   1.083       .  S
C745        C746   1.404       .  A
C746        F747   1.358       .  S
C751        C752   1.399       .  A
C751        C756   1.400       .  A
C751        H758   1.084       .  S
C752        C753   1.400       .  A
C754        H759   1.075       .  S
C755        C756   1.424       .  A
C756        F757   1.346       .  S
C761        C762   1.395       .  A
C761        C766   1.393       .  A
C761        H768   1.084       .  S
C762        C763   1.401       .  A
C763        C764   1.404       .  A
C763        F770   1.357       .  S
C764        C765   1.419       .  A
C764        H769   1.083       .  S
C765        C766   1.427       .  A
C766        F767   1.354       .  S
C771        C772   1.411       .  A
C771        C776   1.406       .  A
C772        C773   1.424   1_545  A
C773        C774   1.390       .  A
C773        F780   1.358       .  S
C774        C775   1.397       .  A
C774        H779   1.083       .  S
C775        C776   1.408   1_565  A
In781       O783   2.252       .  S
In781       O784   2.219       .  S
In781       O792   2.220       .  S
In781       O786   2.264       .  S
In781       O788   2.264       .  S
In781       O789   2.250       .  S
In781       O790   2.203       .  S
In781       O793   2.211       .  S
C782        O788   1.267       .  A
C782        O790   1.258       .  A
C782       C1060   1.460       .  S
O783        C791   1.266       .  A
O784        C791   1.266       .  A
C785        O792   1.261       .  A
C785        O786   1.268       .  A
C785       C1022   1.475       .  S
C787        O789   1.263       .  A
C787        O793   1.259       .  A
C787        C795   1.455       .  S
C791       C1035   1.481       .  S
In794       O796   2.214       .  S
In794       O797   2.253       .  S
In794       O805   2.235       .  S
In794       O799   2.245       .  S
In794       O801   2.253       .  S
In794       O802   2.263       .  S
In794       O803   2.211       .  S
In794       O806   2.212       .  S
C795        O801   1.263       .  A
C795        O803   1.258       .  A
O796        C804   1.260       .  A
O797        C804   1.267       .  A
C798        O805   1.264       .  A
C798        O799   1.265       .  A
C798       C1012   1.481       .  S
C800        O802   1.263       .  A
C800        O806   1.259       .  A
C800       C1302   1.460   1_545  S
C804       C1005   1.475       .  S
C807       C1225   1.560       .  S
C807        C975   1.558       .  S
C807       C1242   1.552       .  S
C807        C992   1.552       .  S
C808       C1202   1.585       .  S
C808        C955   1.570       .  S
C808        C995   1.553       .  S
C808       C1275   1.569       .  S
C809        C912   1.556       .  S
C809       C1445   1.552   1_545  S
C809        C935   1.570       .  S
C809       C1552   1.562       .  S
C810        C882   1.564   1_565  S
C810       C1412   1.560       .  S
C810       C1425   1.572       .  S
C810        C932   1.563       .  S
In811       O813   2.239       .  S
In811       O814   2.233       .  S
In811       O819   2.254       .  S
In811       O820   2.203       .  S
C812        O820   1.261       .  A
C812        C825   1.460       .  S
O813        C821   1.263       .  A
O814        C821   1.266       .  A
C815        O822   1.260       .  A
C815        O816   1.268       .  A
C815        C985   1.463       .  S
C817        O819   1.265       .  A
C817       C1350   1.459   1_545  S
C821        C875   1.466       .  S
In824       O826   2.230       .  S
In824       O827   2.228       .  S
In824       O832   2.248       .  S
In824       O833   2.203       .  S
C825        O833   1.259       .  A
O826        C834   1.259       .  A
O827        C834   1.265       .  A
C828        O835   1.258       .  A
C828        O829   1.265       .  A
C828        C902   1.473       .  S
C830        O832   1.265       .  A
C830       C1077   1.459       .  S
C834        C865   1.463       .  S
C837        C855   1.550       .  S
C837        C915   1.560       .  S
C837        C922   1.559       .  S
C837       C1025   1.561       .  S
C838        C852   1.576       .  S
C838        C862   1.563       .  S
C838        C885   1.569       .  S
C838        C895   1.557       .  S
C839        C842   1.586       .  S
C839        C872   1.552       .  S
C839        C962   1.583       .  S
C839        C972   1.584       .  S
C840        C845   1.559       .  S
C840        C945   1.573       .  S
C840        C952   1.576       .  S
C840       C1002   1.563       .  S
C841        C842   1.413       .  A
C841        C846   1.389       .  A
C841        H848   1.070       .  S
C842        C843   1.429       .  A
C843        C844   1.405       .  A
C843        F850   1.359       .  S
C844        C845   1.409       .  A
C844        H849   1.082       .  S
C845        C846   1.415       .  A
C846        F847   1.354       .  S
C851        C852   1.417       .  A
C851        C856   1.404   1_554  A
C851        H858   1.082       .  S
C852        C853   1.424       .  A
C853        C854   1.388       .  A
C853        F860   1.354       .  S
C854        C855   1.404   1_554  A
C854        H859   1.081       .  S
C855        C856   1.415       .  A
C856        F857   1.357       .  S
C861        C862   1.415       .  A
C861        C866   1.404       .  A
C861        H868   1.078       .  S
C862        C863   1.430       .  A
C863        C864   1.384       .  A
C863        F870   1.360       .  S
C864        C865   1.389       .  A
C864        H869   1.084       .  S
C865        C866   1.404       .  A
C866        F867   1.357       .  S
C871        C872   1.417       .  A
C871        C876   1.405       .  A
C871        H878   1.081       .  S
C872        C873   1.424       .  A
C873        C874   1.390       .  A
C873        F880   1.358       .  S
C874        C875   1.393       .  A
C874        H879   1.083       .  S
C875        C876   1.402       .  A
C876        F877   1.357       .  S
C881        C882   1.404       .  A
C881        C886   1.392       .  A
C881        H888   1.083       .  S
C882        C883   1.426       .  A
C883        C884   1.404       .  A
C883        F890   1.355   1_545  S
C884        C885   1.409       .  A
C884        H889   1.083       .  S
C885        C886   1.428       .  A
C886        F887   1.354       .  S
C891        C892   1.411       .  A
C891        C896   1.377       .  A
C891        H898   1.082       .  S
C892       C1070   1.560       .  S
C892        C893   1.424       .  A
C893        C894   1.402       .  A
C893        F900   1.351       .  S
C894        C895   1.410       .  A
C894        H899   1.076       .  S
C895        C896   1.417       .  A
C896        F897   1.359       .  S
C901        C902   1.397       .  A
C901        C906   1.397       .  A
C901        H908   1.083       .  S
C902        C903   1.401       .  A
C903        C904   1.401       .  A
C903        F910   1.358       .  S
C904        C905   1.418       .  A
C904       H1169   1.077       .  S
C905       C1070   1.572       .  S
C905        C906   1.423       .  A
C906        F907   1.358       .  S
H909       C1424   1.077       .  S
C911        C916   1.406       .  A
C911        H918   1.081       .  S
C912        C913   1.411       .  A
C913        C914   1.387       .  A
C913        F920   1.356       .  S
C914        H919   1.079       .  S
C915        C916   1.413       .  A
C916        F917   1.355       .  S
C921        C926   1.388       .  A
C921        H928   1.079       .  S
C922        C923   1.416       .  A
C923        C924   1.396       .  A
C923        F930   1.355       .  S
C924        H929   1.080       .  S
C925       C1069   1.552       .  S
C925        C926   1.413       .  A
C926        F927   1.359       .  S
C931        C932   1.411       .  A
C931        C936   1.391   1_565  A
C931        H938   1.079       .  S
C932        C933   1.414       .  A
C933        C934   1.405   1_564  A
C933        F940   1.358   1_565  S
C934        C935   1.416       .  A
C934        H939   1.074   1_545  S
C935        C936   1.419   1_556  A
C936        F937   1.357       .  S
C941        C942   1.422       .  A
C941        C946   1.409       .  A
C941        H948   1.081       .  S
C942       C1328   1.585   1_545  S
C943        C944   1.395       .  A
C943        F950   1.355   1_545  S
C944        C945   1.414       .  A
C944        H949   1.077       .  S
C946        F947   1.358       .  S
C951        C956   1.401       .  A
C951        H958   1.073       .  S
C952        C953   1.422       .  A
C953        C954   1.402       .  A
C953        F960   1.352       .  S
C954        H959   1.082       .  S
C955        C956   1.421       .  A
C956        F957   1.357       .  S
C961        C962   1.416       .  A
C961        C966   1.403       .  A
C961        H968   1.083       .  S
C962        C963   1.424       .  A
C963        C964   1.389       .  A
C963        F970   1.355       .  S
C964        C965   1.405       .  A
C964        H969   1.080       .  S
C965       C1327   1.560       .  S
C965        C966   1.421       .  A
C966        F967   1.356       .  S
C971        C972   1.423       .  A
C971        C976   1.405       .  A
C971        H978   1.081       .  S
C972        C973   1.422       .  A
C973        C974   1.397       .  A
C973        F980   1.345       .  S
C974        C975   1.407       .  A
C974        H979   1.082       .  S
C975        C976   1.411       .  A
C976        F977   1.356       .  S
C981        C982   1.417       .  A
C981        C986   1.390       .  A
C981        H988   1.081       .  S
C982       C1327   1.552       .  S
C982        C983   1.424   1_545  A
C983        C984   1.402   1_565  A
C983       F1510   1.355       .  S
C984        C985   1.397       .  A
C984        H989   1.083       .  S
C985        C986   1.394       .  A
C986        F987   1.357       .  S
F990       C1243   1.355       .  S
C991        C992   1.409       .  A
C991        C996   1.396       .  A
C991        H998   1.082       .  S
C992        C993   1.415       .  A
C993        C994   1.396       .  A
C993       F1260   1.356       .  S
C994        C995   1.411       .  A
C994       H1259   1.083       .  S
C995        C996   1.420       .  A
C996        F997   1.354       .  S
H999       C1514   1.083       .  S
F1000      C1513   1.356       .  S
C1001      C1002   1.415       .  A
C1001      C1006   1.393       .  A
C1001      H1008   1.081       .  S
C1002      C1003   1.416       .  A
C1003      C1004   1.399       .  A
C1003      F1010   1.351       .  S
C1004      C1005   1.399       .  A
C1004      H1009   1.083       .  S
C1005      C1006   1.404       .  A
C1006      F1007   1.358       .  S
C1011      C1012   1.399       .  A
C1011      C1016   1.400       .  A
C1011      H1018   1.084       .  S
C1012      C1013   1.400   1_545  A
C1013      C1534   1.397       .  A
C1013      F1540   1.358       .  S
C1014      C1273   1.397       .  A
C1014      C1275   1.420       .  A
C1014      H1019   1.075       .  S
C1015      C1328   1.569   1_545  S
C1015      C1534   1.420   1_545  A
C1015      C1016   1.424       .  A
C1016      F1017   1.346       .  S
F1020      C1273   1.358       .  S
C1021      C1022   1.395       .  A
C1021      C1026   1.393       .  A
C1021      H1028   1.084       .  S
C1022      C1023   1.401       .  A
C1023      C1024   1.404       .  A
C1023      F1030   1.357       .  S
C1024      C1025   1.419       .  A
C1024      H1029   1.083       .  S
C1025      C1026   1.427       .  A
C1026      F1027   1.354       .  S
C1031      C1032   1.411       .  A
C1031      C1036   1.406       .  A
C1031      H1298   1.083       .  S
C1032      C1069   1.562       .  S
C1032      C1033   1.424       .  A
C1033      C1034   1.390       .  A
C1033      F1040   1.358       .  S
C1034      C1035   1.397       .  A
C1034      H1039   1.083       .  S
C1035      C1036   1.408       .  A
C1036      F1297   1.357       .  S
F1037      C1556   1.357       .  S
H1038      C1551   1.083       .  S
In1041     O1043   2.252       .  S
In1041     O1044   2.219       .  S
In1041     O1052   2.220       .  S
In1041     O1046   2.264       .  S
In1041     O1048   2.264       .  S
In1041     O1049   2.250       .  S
In1041     O1050   2.203       .  S
In1041     O1053   2.211       .  S
C1042      O1048   1.267       .  A
C1042      O1050   1.258       .  A
C1042      C1320   1.460       .  S
O1043      C1051   1.266       .  A
O1044      C1051   1.266       .  A
C1045      O1052   1.261       .  A
C1045      O1046   1.268       .  A
C1045      C1282   1.475       .  S
C1047      O1049   1.263       .  A
C1047      O1053   1.259       .  A
C1047      C1055   1.455       .  S
C1051      C1295   1.481       .  S
In1054     O1056   2.214       .  S
In1054     O1057   2.253       .  S
In1054     O1065   2.235       .  S
In1054     O1059   2.245       .  S
In1054     O1061   2.253       .  S
In1054     O1062   2.263       .  S
In1054     O1063   2.211       .  S
In1054     O1066   2.212       .  S
C1055      O1061   1.263       .  A
C1055      O1063   1.258       .  A
O1056      C1064   1.260       .  A
O1057      C1064   1.267       .  A
C1058      O1065   1.264       .  A
C1058      O1059   1.265       .  A
C1058      C1272   1.481       .  S
C1060      O1062   1.263       .  A
C1060      O1066   1.259       .  A
C1064      C1265   1.475       .  S
C1067      C1485   1.560       .  S
C1067      C1235   1.558       .  S
C1067      C1502   1.552       .  S
C1067      C1252   1.552       .  S
C1068      C1462   1.585       .  S
C1068      C1215   1.570       .  S
C1068      C1255   1.553       .  S
C1068      C1535   1.569       .  S
C1069      C1172   1.556       .  S
C1069      C1195   1.570       .  S
C1070      C1142   1.564       .  S
C1070      C1192   1.563       .  S
In1071     O1073   2.239       .  S
In1071     O1074   2.233       .  S
In1071     O1079   2.254       .  S
In1071     O1080   2.203       .  S
C1072      O1080   1.261       .  A
C1072      C1085   1.460       .  S
O1073      C1081   1.263       .  A
O1074      C1081   1.266       .  A
C1075      O1082   1.260       .  A
C1075      O1076   1.268       .  A
C1075      C1245   1.463       .  S
C1077      O1079   1.265       .  A
C1081      C1135   1.466       .  S
In1084     O1086   2.230       .  S
In1084     O1087   2.228       .  S
In1084     O1092   2.248       .  S
In1084     O1093   2.203       .  S
C1085      O1093   1.259       .  A
O1086      C1094   1.259       .  A
O1087      C1094   1.265       .  A
C1088      O1095   1.258       .  A
C1088      O1089   1.265       .  A
C1088      C1162   1.473       .  S
C1090      O1092   1.265       .  A
C1090      C1337   1.459       .  S
C1094      C1125   1.463       .  S
C1097      C1115   1.550       .  S
C1097      C1175   1.560       .  S
C1097      C1182   1.559       .  S
C1097      C1285   1.561       .  S
C1098      C1112   1.576       .  S
C1098      C1122   1.563       .  S
C1098      C1145   1.569       .  S
C1098      C1155   1.557       .  S
C1099      C1102   1.586       .  S
C1099      C1132   1.552       .  S
C1099      C1222   1.583       .  S
C1099      C1232   1.584       .  S
C1100      C1105   1.559       .  S
C1100      C1205   1.573       .  S
C1100      C1212   1.576       .  S
C1100      C1262   1.563       .  S
C1101      C1102   1.413       .  A
C1101      C1106   1.389       .  A
C1101      H1108   1.070       .  S
C1102      C1103   1.429       .  A
C1103      C1104   1.405       .  A
C1103      F1110   1.359       .  S
C1104      C1105   1.409       .  A
C1104      H1109   1.082       .  S
C1105      C1106   1.415       .  A
C1106      F1107   1.354       .  S
C1111      C1112   1.417       .  A
C1111      C1116   1.404   1_554  A
C1111      H1118   1.082       .  S
C1112      C1113   1.424       .  A
C1113      C1114   1.388       .  A
C1113      F1120   1.354       .  S
C1114      C1115   1.404   1_554  A
C1114      H1119   1.081       .  S
C1115      C1116   1.415       .  A
C1116      F1117   1.357       .  S
C1121      C1122   1.415       .  A
C1121      C1126   1.404       .  A
C1121      H1128   1.078       .  S
C1122      C1123   1.430       .  A
C1123      C1124   1.384       .  A
C1123      F1130   1.360       .  S
C1124      C1125   1.389       .  A
C1124      H1129   1.084       .  S
C1125      C1126   1.404       .  A
C1126      F1127   1.357       .  S
C1131      C1132   1.417       .  A
C1131      C1136   1.405       .  A
C1131      H1138   1.081       .  S
C1132      C1133   1.424       .  A
C1133      C1134   1.390       .  A
C1133      F1140   1.358       .  S
C1134      C1135   1.393       .  A
C1134      H1139   1.083       .  S
C1135      C1136   1.402       .  A
C1136      F1137   1.357       .  S
C1141      C1142   1.404       .  A
C1141      C1146   1.392       .  A
C1141      H1148   1.083       .  S
C1142      C1143   1.426       .  A
C1143      C1144   1.404       .  A
C1143      F1150   1.355       .  S
C1144      C1145   1.409       .  A
C1144      H1149   1.083       .  S
C1145      C1146   1.428       .  A
C1146      F1147   1.354       .  S
C1151      C1152   1.411       .  A
C1151      C1156   1.377       .  A
C1151      H1158   1.082       .  S
C1152      C1330   1.559       .  S
C1152      C1153   1.424       .  A
C1153      C1154   1.402       .  A
C1153      F1160   1.351       .  S
C1154      C1155   1.410       .  A
C1154      H1159   1.076       .  S
C1155      C1156   1.417       .  A
C1156      F1157   1.359       .  S
C1161      C1162   1.397       .  A
C1161      C1166   1.397       .  A
C1161      H1168   1.083       .  S
C1162      C1163   1.401       .  A
C1163      C1164   1.401       .  A
C1163      F1170   1.358       .  S
C1164      C1165   1.418       .  A
C1164      H1429   1.077       .  S
C1165      C1330   1.572       .  S
C1165      C1166   1.423       .  A
C1166      F1167   1.358       .  S
C1171      C1176   1.406       .  A
C1171      H1178   1.081       .  S
C1172      C1173   1.411       .  A
C1173      C1174   1.387       .  A
C1173      F1180   1.356       .  S
C1174      H1179   1.079       .  S
C1175      C1176   1.413       .  A
C1176      F1177   1.355       .  S
C1181      C1186   1.388       .  A
C1181      H1188   1.079       .  S
C1182      C1183   1.416       .  A
C1183      C1184   1.396       .  A
C1183      F1190   1.355       .  S
C1184      H1189   1.080       .  S
C1185      C1329   1.552       .  S
C1185      C1186   1.413       .  A
C1186      F1187   1.359       .  S
C1191      C1192   1.411       .  A
C1191      C1196   1.391       .  A
C1191      H1198   1.079       .  S
C1192      C1193   1.414       .  A
C1193      C1194   1.405   1_554  A
C1193      F1200   1.358       .  S
C1194      C1195   1.416       .  A
C1194      H1199   1.074       .  S
C1195      C1196   1.419   1_556  A
C1196      F1197   1.357       .  S
C1201      C1202   1.422       .  A
C1201      C1206   1.409       .  A
C1201      H1208   1.081       .  S
C1203      C1204   1.395       .  A
C1203      F1210   1.355       .  S
C1204      C1205   1.414       .  A
C1204      H1209   1.077       .  S
C1206      F1207   1.358       .  S
C1211      C1216   1.401       .  A
C1211      H1218   1.073       .  S
C1212      C1213   1.422       .  A
C1213      C1214   1.402       .  A
C1213      F1220   1.352       .  S
C1214      H1219   1.082       .  S
C1215      C1216   1.421       .  A
C1216      F1217   1.357       .  S
C1221      C1222   1.416       .  A
C1221      C1226   1.403       .  A
C1221      H1228   1.083       .  S
C1222      C1223   1.424       .  A
C1223      C1224   1.389       .  A
C1223      F1230   1.355       .  S
C1224      C1225   1.405       .  A
C1224      H1229   1.080       .  S
C1225      C1226   1.421       .  A
C1226      F1227   1.356       .  S
C1231      C1232   1.423       .  A
C1231      C1236   1.405       .  A
C1231      H1238   1.081       .  S
C1232      C1233   1.422       .  A
C1233      C1234   1.397       .  A
C1233      F1240   1.345       .  S
C1234      C1235   1.407       .  A
C1234      H1239   1.082       .  S
C1235      C1236   1.411       .  A
C1236      F1237   1.356       .  S
C1241      C1242   1.417       .  A
C1241      C1246   1.390       .  A
C1241      H1248   1.081       .  S
C1242      C1243   1.424       .  A
C1243      C1244   1.402       .  A
C1244      C1245   1.397       .  A
C1244      H1249   1.083       .  S
C1245      C1246   1.394       .  A
C1246      F1247   1.357       .  S
F1250      C1503   1.355       .  S
C1251      C1252   1.409       .  A
C1251      C1256   1.396       .  A
C1251      H1258   1.082       .  S
C1252      C1253   1.415       .  A
C1253      C1254   1.396       .  A
C1253      F1520   1.356       .  S
C1254      C1255   1.411       .  A
C1254      H1519   1.083       .  S
C1255      C1256   1.420       .  A
C1256      F1257   1.354       .  S
C1261      C1262   1.415       .  A
C1261      C1266   1.393       .  A
C1261      H1268   1.081       .  S
C1262      C1263   1.416       .  A
C1263      C1264   1.399       .  A
C1263      F1270   1.351       .  S
C1264      C1265   1.399       .  A
C1264      H1269   1.083       .  S
C1265      C1266   1.404       .  A
C1266      F1267   1.358       .  S
C1271      C1272   1.399       .  A
C1271      C1276   1.400       .  A
C1271      H1278   1.084       .  S
C1272      C1273   1.400       .  A
C1274      C1533   1.397       .  A
C1274      C1535   1.420       .  A
C1274      H1279   1.075       .  S
C1275      C1276   1.424       .  A
C1276      F1277   1.346       .  S
F1280      C1533   1.358       .  S
C1281      C1282   1.395       .  A
C1281      C1286   1.393       .  A
C1281      H1288   1.084       .  S
C1282      C1283   1.401       .  A
C1283      C1284   1.404       .  A
C1283      F1290   1.357       .  S
C1284      C1285   1.419       .  A
C1284      H1289   1.083       .  S
C1285      C1286   1.427       .  A
C1286      F1287   1.354       .  S
C1291      C1292   1.411       .  A
C1291      C1296   1.406       .  A
C1291      H1558   1.083       .  S
C1292      C1329   1.562       .  S
C1292      C1293   1.424       .  A
C1293      C1294   1.390       .  A
C1293      F1300   1.358       .  S
C1294      C1295   1.397       .  A
C1294      H1299   1.083       .  S
C1295      C1296   1.408       .  A
C1296      F1557   1.357       .  S
In1301     O1303   2.252       .  S
In1301     O1304   2.219       .  S
In1301     O1312   2.220       .  S
In1301     O1306   2.264       .  S
In1301     O1308   2.264       .  S
In1301     O1309   2.250       .  S
In1301     O1310   2.203       .  S
In1301     O1313   2.211       .  S
C1302      O1308   1.267       .  A
C1302      O1310   1.258       .  A
O1303      C1311   1.266       .  A
O1304      C1311   1.266       .  A
C1305      O1312   1.261       .  A
C1305      O1306   1.268       .  A
C1305      C1542   1.475       .  S
C1307      O1309   1.263       .  A
C1307      O1313   1.259       .  A
C1307      C1315   1.455       .  S
C1311      C1555   1.481       .  S
In1314     O1316   2.214       .  S
In1314     O1317   2.253       .  S
In1314     O1325   2.235       .  S
In1314     O1319   2.245       .  S
In1314     O1321   2.253       .  S
In1314     O1322   2.263       .  S
In1314     O1323   2.211       .  S
In1314     O1326   2.212       .  S
C1315      O1321   1.263       .  A
C1315      O1323   1.258       .  A
O1316      C1324   1.260       .  A
O1317      C1324   1.267       .  A
C1318      O1325   1.264       .  A
C1318      O1319   1.265       .  A
C1318      C1532   1.481       .  S
C1320      O1322   1.263       .  A
C1320      O1326   1.259       .  A
C1324      C1525   1.475       .  S
C1327      C1495   1.558   1_545  S
C1327      C1512   1.552   1_545  S
C1328      C1475   1.570       .  S
C1328      C1515   1.553       .  S
C1329      C1432   1.556       .  S
C1329      C1455   1.570       .  S
C1330      C1402   1.564       .  S
C1330      C1452   1.563       .  S
In1331     O1333   2.239       .  S
In1331     O1334   2.233       .  S
In1331     O1339   2.254       .  S
In1331     O1340   2.203       .  S
C1332      O1340   1.261       .  A
C1332      C1345   1.460       .  S
O1333      C1341   1.263       .  A
O1334      C1341   1.266       .  A
C1335      O1342   1.260       .  A
C1335      O1336   1.268       .  A
C1335      C1505   1.463       .  S
C1337      O1339   1.265       .  A
C1341      C1395   1.466       .  S
In1344     O1346   2.230       .  S
In1344     O1347   2.228       .  S
In1344     O1352   2.248       .  S
In1344     O1353   2.203       .  S
C1345      O1353   1.259       .  A
O1346      C1354   1.259       .  A
O1347      C1354   1.265       .  A
C1348      O1355   1.258       .  A
C1348      O1349   1.265       .  A
C1348      C1422   1.473       .  S
C1350      O1352   1.265       .  A
C1354      C1385   1.463       .  S
C1357      C1375   1.550       .  S
C1357      C1435   1.560       .  S
C1357      C1442   1.559       .  S
C1357      C1545   1.561       .  S
C1358      C1372   1.576       .  S
C1358      C1382   1.563       .  S
C1358      C1405   1.569       .  S
C1358      C1415   1.557       .  S
C1359      C1362   1.586       .  S
C1359      C1392   1.552       .  S
C1359      C1482   1.583       .  S
C1359      C1492   1.584       .  S
C1360      C1365   1.559       .  S
C1360      C1465   1.573       .  S
C1360      C1472   1.576       .  S
C1360      C1522   1.563       .  S
C1361      C1362   1.413       .  A
C1361      C1366   1.389       .  A
C1361      H1368   1.070       .  S
C1362      C1363   1.429       .  A
C1363      C1364   1.405       .  A
C1363      F1370   1.359       .  S
C1364      C1365   1.409       .  A
C1364      H1369   1.082       .  S
C1365      C1366   1.415       .  A
C1366      F1367   1.354       .  S
C1371      C1372   1.417       .  A
C1371      C1376   1.404   1_554  A
C1371      H1378   1.082       .  S
C1372      C1373   1.424       .  A
C1373      C1374   1.388       .  A
C1373      F1380   1.354       .  S
C1374      C1375   1.404   1_554  A
C1374      H1379   1.081       .  S
C1375      C1376   1.415       .  A
C1376      F1377   1.357       .  S
C1381      C1382   1.415       .  A
C1381      C1386   1.404       .  A
C1381      H1388   1.078       .  S
C1382      C1383   1.430       .  A
C1383      C1384   1.384       .  A
C1383      F1390   1.360       .  S
C1384      C1385   1.389       .  A
C1384      H1389   1.084       .  S
C1385      C1386   1.404       .  A
C1386      F1387   1.357       .  S
C1391      C1392   1.417       .  A
C1391      C1396   1.405       .  A
C1391      H1398   1.081       .  S
C1392      C1393   1.424       .  A
C1393      C1394   1.390       .  A
C1393      F1400   1.358       .  S
C1394      C1395   1.393       .  A
C1394      H1399   1.083       .  S
C1395      C1396   1.402       .  A
C1396      F1397   1.357       .  S
C1401      C1402   1.404       .  A
C1401      C1406   1.392       .  A
C1401      H1408   1.083       .  S
C1402      C1403   1.426       .  A
C1403      C1404   1.404       .  A
C1403      F1410   1.355       .  S
C1404      C1405   1.409       .  A
C1404      H1409   1.083       .  S
C1405      C1406   1.428       .  A
C1406      F1407   1.354       .  S
C1411      C1412   1.411       .  A
C1411      C1416   1.377       .  A
C1411      H1418   1.082       .  S
C1412      C1413   1.424       .  A
C1413      C1414   1.402       .  A
C1413      F1420   1.351       .  S
C1414      C1415   1.410       .  A
C1414      H1419   1.076       .  S
C1415      C1416   1.417       .  A
C1416      F1417   1.359       .  S
C1421      C1422   1.397       .  A
C1421      C1426   1.397       .  A
C1421      H1428   1.083       .  S
C1422      C1423   1.401       .  A
C1423      C1424   1.401   1_565  A
C1423      F1430   1.358   1_565  S
C1424      C1425   1.418   1_545  A
C1425      C1426   1.423       .  A
C1426      F1427   1.358       .  S
C1431      C1436   1.406       .  A
C1431      H1438   1.081       .  S
C1432      C1433   1.411       .  A
C1433      C1434   1.387       .  A
C1433      F1440   1.356       .  S
C1434      H1439   1.079       .  S
C1435      C1436   1.413       .  A
C1436      F1437   1.355       .  S
C1441      C1446   1.388       .  A
C1441      H1448   1.079       .  S
C1442      C1443   1.416       .  A
C1443      C1444   1.396       .  A
C1443      F1450   1.355       .  S
C1444      H1449   1.080       .  S
C1445      C1446   1.413       .  A
C1446      F1447   1.359       .  S
C1451      C1452   1.411       .  A
C1451      C1456   1.391       .  A
C1451      H1458   1.079       .  S
C1452      C1453   1.414       .  A
C1453      C1454   1.405   1_554  A
C1453      F1460   1.358       .  S
C1454      C1455   1.416       .  A
C1454      H1459   1.074       .  S
C1455      C1456   1.419   1_556  A
C1456      F1457   1.357       .  S
C1461      C1462   1.422       .  A
C1461      C1466   1.409       .  A
C1461      H1468   1.081       .  S
C1463      C1464   1.395       .  A
C1463      F1470   1.355       .  S
C1464      C1465   1.414       .  A
C1464      H1469   1.077       .  S
C1466      F1467   1.358       .  S
C1471      C1476   1.401       .  A
C1471      H1478   1.073       .  S
C1472      C1473   1.422       .  A
C1473      C1474   1.402       .  A
C1473      F1480   1.352       .  S
C1474      H1479   1.082       .  S
C1475      C1476   1.421       .  A
C1476      F1477   1.357       .  S
C1481      C1482   1.416       .  A
C1481      C1486   1.403       .  A
C1481      H1488   1.083       .  S
C1482      C1483   1.424       .  A
C1483      C1484   1.389       .  A
C1483      F1490   1.355       .  S
C1484      C1485   1.405       .  A
C1484      H1489   1.080       .  S
C1485      C1486   1.421       .  A
C1486      F1487   1.356       .  S
C1491      C1492   1.423       .  A
C1491      C1496   1.405       .  A
C1491      H1498   1.081       .  S
C1492      C1493   1.422       .  A
C1493      C1494   1.397       .  A
C1493      F1500   1.345       .  S
C1494      C1495   1.407       .  A
C1494      H1499   1.082       .  S
C1495      C1496   1.411       .  A
C1496      F1497   1.356       .  S
C1501      C1502   1.417       .  A
C1501      C1506   1.390       .  A
C1501      H1508   1.081       .  S
C1502      C1503   1.424       .  A
C1503      C1504   1.402       .  A
C1504      C1505   1.397       .  A
C1504      H1509   1.083       .  S
C1505      C1506   1.394       .  A
C1506      F1507   1.357       .  S
C1511      C1512   1.409   1_545  A
C1511      C1516   1.396       .  A
C1511      H1518   1.082       .  S
C1512      C1513   1.415       .  A
C1513      C1514   1.396       .  A
C1514      C1515   1.411       .  A
C1515      C1516   1.420   1_565  A
C1516      F1517   1.354       .  S
C1521      C1522   1.415       .  A
C1521      C1526   1.393       .  A
C1521      H1528   1.081       .  S
C1522      C1523   1.416       .  A
C1523      C1524   1.399       .  A
C1523      F1530   1.351       .  S
C1524      C1525   1.399       .  A
C1524      H1529   1.083       .  S
C1525      C1526   1.404       .  A
C1526      F1527   1.358       .  S
C1531      C1532   1.399       .  A
C1531      C1536   1.400       .  A
C1531      H1538   1.084       .  S
C1532      C1533   1.400       .  A
C1534      H1539   1.075       .  S
C1535      C1536   1.424       .  A
C1536      F1537   1.346       .  S
C1541      C1542   1.395       .  A
C1541      C1546   1.393       .  A
C1541      H1548   1.084       .  S
C1542      C1543   1.401       .  A
C1543      C1544   1.404       .  A
C1543      F1550   1.357       .  S
C1544      C1545   1.419       .  A
C1544      H1549   1.083       .  S
C1545      C1546   1.427       .  A
C1546      F1547   1.354       .  S
C1551      C1552   1.411       .  A
C1551      C1556   1.406       .  A
C1552      C1553   1.424   1_545  A
C1553      C1554   1.390       .  A
C1553      F1560   1.358       .  S
C1554      C1555   1.397       .  A
C1554      H1559   1.083       .  S
C1555      C1556   1.408   1_565  A
