geometry optimzed in LAMMPS
_audit_creation_date              2020-11-30 
_audit_creation_method            'lammps2cif' 
_symmetry_space_group_name_H-M    'P1' 
_symmetry_Int_Tables_number       1 
_symmetry_cell_setting            triclinic 
loop_ 
_symmetry_equiv_pos_as_xyz 
  x,y,z 
_cell_length_a                    40.13664536 
_cell_length_b                    24.46647787190047 
_cell_length_c                    24.01551965212657 
_cell_angle_alpha                 92.09607414701918 
_cell_angle_beta                  91.29507182278218 
_cell_angle_gamma                 90.85003245615958 
loop_ 
_atom_site_label 
_atom_site_type_symbol 
_atom_site_fract_x 
_atom_site_fract_y 
_atom_site_fract_z 
_atom_site_charge 
C1          C  0.99998834  0.09671987  0.13531213     0.05700
C2          C  0.02033522  0.08676017  0.08946250    -0.10500
C3          C  0.05124063  0.11314694  0.08571738     0.03200
C4          C  0.06182168  0.15063530  0.12832403    -0.09000
C5          C  0.04199760  0.16057348  0.17514963     0.05700
C6          C  0.01126456  0.13283694  0.17896660    -0.08400
H7          H  0.01198026  0.05829089  0.05616441     0.11300
H8          H  0.08588654  0.17097763  0.12590785     0.08800
H9          H  0.99581072  0.14098123  0.21462210     0.08700
O10         O  0.90353602  0.91976957  0.02499162    -0.75900
C11         C  0.80452167  0.96806326  0.08694025     0.85100
O12         O  0.92432318  0.97248134  0.21318376    -0.77000
O13         O  0.81664329  0.87221296  0.24567394    -0.78500
O14         O  0.85447539  0.76069012  0.08505397    -0.78300
O15         O  0.91812914  0.83350739  0.03727241    -0.77000
Zn16       Zn  0.87880372  0.94305814  0.09346442     1.55700
O17         O  0.80820639  0.79402263  0.12258976    -0.78300
Cd18       Cd  0.89225444  0.81504883  0.10802063     1.59700
Cd19       Cd  0.89783637  0.89993467  0.21347472     1.59600
O20         O  0.92419927  0.77633429  0.16276069    -0.78300
O21         O  0.87278293  0.88261377  0.14259380    -1.88800
Cd22       Cd  0.82427245  0.87017693  0.15880319     1.59900
O23         O  0.93138100  0.84038286  0.23044596    -0.78300
O24         O  0.79680316  0.93195672  0.12182577    -0.77000
C25         C  0.92689328  0.00628106  0.17455438     0.85600
C26         C  0.91903469  0.87702918  0.00966989     0.85200
O27         O  0.83439504  0.97519305  0.07125272    -0.75900
C28         C  0.82333796  0.75721945  0.09403118     0.86100
O29         O  0.90977429  0.00082226  0.12923117    -0.76000
C30         C  0.93753073  0.79357153  0.20890676     0.86200
C31         C  0.83677090  0.88418326  0.28656944     0.86500
O32         O  0.86699088  0.89795307  0.27962663    -0.78400
C33         C  0.75681910  0.56725186  0.98333872     0.82800
N34         N  0.76570685  0.55902732  0.92922968    -0.75500
C35         C  0.79234710  0.58649883  0.90920127     0.85200
N36         N  0.80917905  0.62354532  0.94300413    -0.75500
C37         C  0.79959024  0.63404169  0.99606964     0.85300
N38         N  0.77361008  0.60529003  0.01659403    -0.77200
C39         C  0.01117539  0.59412911  0.30153708     0.05700
C40         C  0.99816381  0.59900594  0.35556815    -0.10500
C41         C  0.97441343  0.63883393  0.36837131     0.03200
C42         C  0.96424389  0.67430567  0.32734503    -0.09000
C43         C  0.97622397  0.66888318  0.27286389     0.05700
C44         C  0.99905937  0.62781294  0.25980877    -0.08400
H45         H  0.00634262  0.57175187  0.38753282     0.11300
H46         H  0.94564853  0.70461540  0.33728826     0.08800
H47         H  0.00832165  0.62348477  0.21785471     0.08700
O48         O  0.12020692  0.41480623  0.45096527    -0.75900
C49         C  0.21458797  0.47203908  0.37487610     0.85100
O50         O  0.08634046  0.46937207  0.27513274    -0.77000
O51         O  0.19478257  0.37420547  0.21875065    -0.78500
O52         O  0.16217993  0.26333152  0.37643724    -0.78300
O53         O  0.09705102  0.33374761  0.42623191    -0.77000
Zn54       Zn  0.14099595  0.44123014  0.38132277     1.55700
O55         O  0.20717606  0.29707861  0.33563391    -0.78300
Cd56       Cd  0.12351920  0.31434318  0.35461889     1.59700
Cd57       Cd  0.11659344  0.40252480  0.25805481     1.59600
O58         O  0.09352442  0.27305486  0.29366828    -0.78300
O59         O  0.14298770  0.38277004  0.32527979    -1.88800
Cd60       Cd  0.19017511  0.37086045  0.30445700     1.59900
O61         O  0.08789932  0.33647436  0.22979284    -0.78300
O62         O  0.21984294  0.43425292  0.33835047    -0.77000
C63         C  0.08741153  0.50244989  0.31752974     0.85600
C64         C  0.10091777  0.37460489  0.46062253     0.85200
O65         O  0.18614278  0.47813036  0.39682015    -0.75900
C66         C  0.19309489  0.26125965  0.36504969     0.86100
O67         O  0.10839246  0.49740510  0.35740437    -0.76000
C68         C  0.08240640  0.28854132  0.24661501     0.86200
C69         C  0.17641154  0.39555704  0.18152402     0.86500
O70         O  0.14756190  0.41405864  0.19176616    -0.78400
C71         C  0.26842640  0.08878799  0.46969133     0.82800
N72         N  0.24926866  0.12219773  0.43840302    -0.75500
C73         C  0.22375975  0.14990142  0.46226255     0.85200
N74         N  0.21702617  0.14258794  0.51660135    -0.75500
C75         C  0.23627725  0.10996512  0.54811828     0.85300
N76         N  0.26227465  0.08367593  0.52470437    -0.77200
C77         C  0.01341163  0.38481460  0.65477162     0.05700
C78         C  0.02558079  0.38026317  0.60019817    -0.10500
C79         C  0.04850194  0.33956917  0.58606140     0.03200
C80         C  0.05847412  0.30296576  0.62609680    -0.09000
C81         C  0.04713920  0.30837572  0.68091769     0.05700
C82         C  0.02534901  0.35024520  0.69544927    -0.08400
H83         H  0.01730433  0.40825110  0.56897077     0.11300
H84         H  0.07646773  0.27196748  0.61519343     0.08800
H85         H  0.01658473  0.35438545  0.73775650     0.08700
O86         O  0.84101402  0.49899969  0.55820265    -0.75900
C87         C  0.92546767  0.60221615  0.49785160     0.85100
O88         O  0.93610129  0.50335530  0.68682071    -0.77000
O89         O  0.93501952  0.69950636  0.66470540    -0.78500
O90         O  0.81887350  0.67797244  0.62486434    -0.78300
O91         O  0.80583248  0.54028268  0.61599183    -0.77000
Zn92       Zn  0.88533336  0.53526416  0.57721319     1.55700
O93         O  0.86463386  0.71298022  0.58705881    -0.78300
Cd94       Cd  0.83475545  0.60294404  0.65403775     1.59700
Cd95       Cd  0.90779519  0.57235284  0.70275277     1.59600
O96         O  0.82785817  0.59835064  0.73979148    -0.78300
O97         O  0.88253999  0.59257737  0.63446246    -1.88800
Cd98       Cd  0.90294847  0.66071652  0.60525563     1.59900
O99         O  0.87647581  0.56604599  0.77032307    -0.78300
O100        O  0.92827965  0.64373166  0.53155473    -0.77000
C101        C  0.93587704  0.47163010  0.64343103     0.85600
C102        C  0.81212299  0.50384812  0.57851423     0.85200
O103        O  0.90744007  0.56091477  0.50860668    -0.75900
C104        C  0.83364691  0.71491518  0.59782648     0.86100
O105        O  0.91632763  0.47837830  0.60210269    -0.76000
C106        C  0.84664937  0.58118815  0.77887402     0.86200
C107        C  0.94702471  0.68220754  0.71039053     0.86500
O108        O  0.94003929  0.63488834  0.72742906    -0.78400
C109        C  0.76772941  0.90475532  0.51059040     0.82800
N110        N  0.78473756  0.86467671  0.53623260    -0.75500
C111        C  0.80482154  0.83107877  0.50628182     0.85200
N112        N  0.80833154  0.83849258  0.45110861    -0.75500
C113        C  0.79113679  0.87776891  0.42483402     0.85300
N114        N  0.77068708  0.91078167  0.45465691    -0.77200
C115        C  0.01926294  0.87806756  0.83536318     0.05700
C116        C  0.99980453  0.87509466  0.88316797    -0.10500
C117        C  0.97261654  0.83861819  0.88456467     0.03200
C118        C  0.96508610  0.80435947  0.83825110    -0.09000
C119        C  0.98370393  0.80717265  0.78961135     0.05700
C120        C  0.01060166  0.84445216  0.78793241    -0.08400
H121        H  0.00603205  0.90082890  0.91974986     0.11300
H122        H  0.94395610  0.77631976  0.83955461     0.08800
H123        H  0.02514273  0.84543173  0.75061053     0.08700
O124        O  0.18095961  0.00721178  0.89522376    -0.75900
C125        C  0.10504829  0.12802724  0.95730090     0.85100
O126        O  0.09633342  0.00596487  0.75624283    -0.77000
O127        O  0.09833551  0.20502725  0.79096419    -0.78500
O128        O  0.21470107  0.18286645  0.84352658    -0.78300
O129        O  0.21922402  0.04378023  0.84054734    -0.77000
Zn130      Zn  0.13794701  0.04644272  0.87707044     1.55700
O131        O  0.16816318  0.22590971  0.86649870    -0.78300
Cd132      Cd  0.19539689  0.10951282  0.80632280     1.59700
Cd133      Cd  0.12316784  0.07796066  0.75077733     1.59600
O134        O  0.20356662  0.10859052  0.72041138    -0.78300
O135        O  0.14681898  0.10045891  0.82176902    -1.88800
Cd136      Cd  0.12984506  0.17208693  0.84862493     1.59900
O137        O  0.15496357  0.07622807  0.68496391    -0.78300
O138        O  0.10620438  0.16621557  0.92292721    -0.77000
C139        C  0.08960372  0.97915023  0.79906769     0.85600
C140        C  0.21036302  0.00897073  0.87589499     0.85200
O141        O  0.11760570  0.08121765  0.94672077    -0.75900
C142        C  0.19976817  0.22410705  0.86483967     0.86100
O143        O  0.10341294  0.99076370  0.84653858    -0.76000
C144        C  0.18476242  0.09309036  0.67897841     0.86200
C145        C  0.08460871  0.18468117  0.74645454     0.86500
O146        O  0.08992513  0.13621975  0.72852197    -0.78400
C147        C  0.26405812  0.41411935  0.97821535     0.82800
N148        N  0.25556870  0.42019081  0.03252723    -0.75500
C149        C  0.22985248  0.39049759  0.05211061     0.85200
N150        N  0.21336787  0.35363082  0.01765862    -0.75500
C151        C  0.22277260  0.34534546  0.96420744     0.85300
N152        N  0.24786845  0.37620558  0.94411773    -0.77200
C153        C  0.52290274  0.61203685  0.14135657     0.05700
C154        C  0.51162631  0.64925786  0.18263005    -0.10500
C155        C  0.48144209  0.67669566  0.17401892     0.03200
C156        C  0.46209529  0.66444317  0.12542046    -0.09000
C157        C  0.47283807  0.62633241  0.08518136     0.05700
C158        C  0.50320632  0.60055497  0.09330191    -0.08400
H159        H  0.52677202  0.65846328  0.21979747     0.11300
H160        H  0.43815190  0.68354491  0.11952632     0.08800
H161        H  0.51171054  0.57149619  0.06169733     0.08700
O162        O  0.67584219  0.48517623  0.06808533    -0.75900
C163        C  0.58405318  0.38892655  0.01301709     0.85100
O164        O  0.59634725  0.48053114  0.21907869    -0.77000
O165        O  0.58420606  0.29027674  0.17263144    -0.78500
O166        O  0.69451656  0.29433921  0.10169273    -0.78300
O167        O  0.71488623  0.43157280  0.10352298    -0.77000
Zn168      Zn  0.63209642  0.45172350  0.09260325     1.55700
O169        O  0.64210864  0.27007480  0.07739722    -0.78300
Cd170      Cd  0.68767547  0.37122110  0.14305451     1.59700
Cd171      Cd  0.62406211  0.40933694  0.21730431     1.59600
O172        O  0.70528354  0.37287747  0.22593721    -0.78300
O173        O  0.63924157  0.39069852  0.14051385    -1.88800
Cd174      Cd  0.61136939  0.32746699  0.11124869     1.59900
O175        O  0.66408943  0.41290375  0.27276295    -0.78300
O176        O  0.58125803  0.34883945  0.04510326    -0.77000
C177        C  0.59109417  0.51378998  0.18031907     0.85600
C178        C  0.70636383  0.47300011  0.07594301     0.85200
O179        O  0.60399780  0.42896182  0.02443154    -0.75900
C180        C  0.67326766  0.26166386  0.07688385     0.86100
O181        O  0.60460182  0.50782014  0.13294220    -0.76000
C182        C  0.69325414  0.39287111  0.27099124     0.86200
C183        C  0.58126950  0.30346688  0.22413105     0.86500
O184        O  0.59447980  0.34702213  0.24588166    -0.78400
C185        C  0.75207080  0.06051070  0.99460234     0.82800
N186        N  0.73697745  0.05419357  0.94318136    -0.75500
C187        C  0.71272630  0.08935531  0.92754456     0.85200
N188        N  0.70444135  0.13122328  0.96297978    -0.75500
C189        C  0.72027902  0.13910082  0.01335224     0.85300
N190        N  0.74386456  0.10332330  0.02914552    -0.77200
C191        C  0.49440136  0.11553190  0.31581646     0.05700
C192        C  0.50544980  0.15238667  0.27636796    -0.10500
C193        C  0.53615054  0.18036653  0.28513063     0.03200
C194        C  0.55614932  0.16909025  0.33226990    -0.09000
C195        C  0.54563875  0.13055871  0.37016573     0.05700
C196        C  0.51478206  0.10441922  0.36186025    -0.08400
H197        H  0.48978067  0.16076995  0.24044651     0.11300
H198        H  0.58037304  0.18877375  0.33850820     0.08800
H199        H  0.50644534  0.07524843  0.39175056     0.08700
O200        O  0.34285101  0.99007322  0.38825280    -0.75900
C201        C  0.42624203  0.88731671  0.44702500     0.85100
O202        O  0.42096896  0.97545198  0.23886674    -0.77000
O203        O  0.42955836  0.78829214  0.28500393    -0.78500
O204        O  0.31346655  0.79902120  0.33930091    -0.78300
O205        O  0.30129541  0.93749953  0.35216435    -0.77000
Zn206      Zn  0.38514468  0.95258330  0.36439271     1.55700
O207        O  0.36316192  0.76536918  0.36200788    -0.78300
Cd208      Cd  0.32577158  0.87574400  0.30852700     1.59700
Cd209      Cd  0.39245776  0.90430876  0.23941617     1.59600
O210        O  0.30855600  0.87994027  0.22630741    -0.78300
O211        O  0.37524957  0.88972212  0.31477667    -1.88800
Cd212      Cd  0.39821019  0.82392424  0.34337283     1.59900
O213        O  0.35378071  0.90752663  0.18211215    -0.78300
O214        O  0.42453817  0.84340420  0.41673692    -0.77000
C215        C  0.42698906  0.01071180  0.27817103     0.85600
C216        C  0.31181519  0.97974738  0.38033182     0.85200
O217        O  0.41176160  0.93080652  0.43268467    -0.75900
C218        C  0.33146109  0.76115271  0.35873073     0.86100
O219        O  0.41411185  0.00659419  0.32592328    -0.76000
C220        C  0.32287891  0.89469360  0.18232456     0.86200
C221        C  0.43491550  0.79988577  0.23461332     0.86500
O222        O  0.42229747  0.84146380  0.21238167    -0.78400
C223        C  0.27444336  0.56838164  0.45833588     0.82800
N224        N  0.28840215  0.60609125  0.42509627    -0.75500
C225        C  0.31746709  0.63193058  0.44148335     0.85200
N226        N  0.33267837  0.61897862  0.49009611    -0.75500
C227        C  0.31857520  0.58246324  0.52379264     0.85300
N228        N  0.28919020  0.55763856  0.50814922    -0.77200
C229        C  0.50115971  0.37537049  0.80686767     0.05700
C230        C  0.51398381  0.37770653  0.86206828    -0.10500
C231        C  0.53736546  0.33966058  0.87956269     0.03200
C232        C  0.54781297  0.29894528  0.84198331    -0.09000
C233        C  0.53635454  0.29729564  0.78623065     0.05700
C234        C  0.51337963  0.33624401  0.76866023    -0.08400
H235        H  0.50592889  0.40919710  0.89144179     0.11300
H236        H  0.56659192  0.27071169  0.85563866     0.08800
H237        H  0.50458234  0.33546079  0.72562450     0.08700
O238        O  0.40507512  0.58945510  0.94589994    -0.75900
C239        C  0.30983962  0.51077878  0.88375897     0.85100
O240        O  0.42634207  0.49921153  0.76955397    -0.77000
O241        O  0.31595584  0.58647692  0.71872404    -0.78500
O242        O  0.35424789  0.72338911  0.84988956    -0.78300
O243        O  0.41763217  0.67191413  0.91541098    -0.77000
Zn244      Zn  0.38183380  0.54971345  0.88070307     1.55700
O245        O  0.30723977  0.67667217  0.82909151    -0.78300
Cd246      Cd  0.39255822  0.67040931  0.83961413     1.59700
Cd247      Cd  0.39810307  0.56799264  0.75089736     1.59600
O248        O  0.42324969  0.69992602  0.77996083    -0.78300
O249        O  0.37461482  0.59631805  0.81864164    -1.88800
Cd250      Cd  0.32564689  0.60070746  0.80272966     1.59900
O251        O  0.42907718  0.62842268  0.72085865    -0.78300
O252        O  0.30070989  0.54009866  0.84361517    -0.77000
C253        C  0.42859688  0.47501956  0.81575244     0.85600
C254        C  0.41895385  0.63646664  0.95276714     0.85200
O255        O  0.33945152  0.51300452  0.90404907    -0.75900
C256        C  0.32258170  0.72028898  0.84649198     0.86100
O257        O  0.41244156  0.49054047  0.85817576    -0.76000
C258        C  0.43514485  0.67814285  0.73589572     0.86200
C259        C  0.33317330  0.56661781  0.67913767     0.86500
O260        O  0.36365271  0.55337200  0.68584626    -0.78400
C261        C  0.26165872  0.90894639  0.95970826     0.82800
N262        N  0.27574040  0.87481464  0.92107045    -0.75500
C263        C  0.30307283  0.84599108  0.93514103     0.85200
N264        N  0.31665062  0.85223566  0.98700059    -0.75500
C265        C  0.30232523  0.88460690  0.02614790     0.85300
N266        N  0.27463564  0.91309800  0.01265800    -0.77200
C267        C  0.51202831  0.87942052  0.64947714     0.05700
C268        C  0.49630687  0.88030178  0.59637953    -0.10500
C269        C  0.47101218  0.84215169  0.58082988     0.03200
C270        C  0.46187793  0.80248418  0.61834990    -0.09000
C271        C  0.47647206  0.80227664  0.67210396     0.05700
C272        C  0.50102256  0.84163712  0.68782928    -0.08400
H273        H  0.50380746  0.91051850  0.56709740     0.11300
H274        H  0.44212040  0.77339312  0.60648894     0.08800
H275        H  0.51223595  0.84180362  0.72932712     0.08700
O276        O  0.60964710  0.09022870  0.50881839    -0.75900
C277        C  0.70313715  0.01074178  0.55415870     0.85100
O278        O  0.59330913  0.99949397  0.68372993    -0.77000
O279        O  0.70672574  0.08644800  0.72934416    -0.78500
O280        O  0.66592423  0.22371975  0.61104419    -0.78300
O281        O  0.60173276  0.17377517  0.54458112    -0.77000
Zn282      Zn  0.63270990  0.05035552  0.57033514     1.55700
O283        O  0.71239823  0.17557322  0.62057576    -0.78300
Cd284      Cd  0.62715134  0.17054265  0.61975797     1.59700
Cd285      Cd  0.62273002  0.06956804  0.70400972     1.59600
O286        O  0.59605868  0.19883577  0.68035230    -0.78300
O287        O  0.64419940  0.09654486  0.63512238    -1.88800
Cd288      Cd  0.69394758  0.09955382  0.64605501     1.59900
O289        O  0.59093257  0.12842109  0.73613345    -0.78300
O290        O  0.71528952  0.03811488  0.59635771    -0.77000
C291        C  0.58721011  0.97640244  0.63583200     0.85600
C292        C  0.59827378  0.13824967  0.50495821     0.85200
O293        O  0.67276965  0.01419600  0.53879646    -0.75900
C294        C  0.69738854  0.21940157  0.60811220     0.86100
O295        O  0.60103980  0.99223346  0.59203740    -0.76000
C296        C  0.58383727  0.17687538  0.72270931     0.86200
C297        C  0.69029882  0.07070261  0.77099111     0.86500
O298        O  0.65896971  0.05994800  0.76737016    -0.78400
C299        C  0.75752412  0.40149409  0.49223166     0.82800
N300        N  0.74369487  0.40598187  0.44031040    -0.75500
C301        C  0.71540577  0.37728066  0.42558365     0.85200
N302        N  0.70138525  0.34401344  0.46263161    -0.75500
C303        C  0.71585542  0.33730156  0.51338334     0.85300
N304        N  0.74373526  0.36669455  0.52863419    -0.77200
C305        C  0.71609062  0.26540733  0.58438953    -0.13900
C306        C  0.69966300  0.29967453  0.55106656    -0.29000
H307        H  0.74314248  0.26661049  0.58731208     0.15200
H308        H  0.67288010  0.29458410  0.54463657     0.15700
C309        C  0.53973582  0.91824850  0.66521036    -0.13900
C310        C  0.56254228  0.93149796  0.62778593    -0.29000
H311        H  0.54120220  0.93615762  0.70727278     0.15200
H312        H  0.56132793  0.91141033  0.58664050     0.15700
C313        C  0.30347138  0.76764515  0.86760373    -0.13900
C314        C  0.31954578  0.80925383  0.89536822    -0.29000
H315        H  0.27642787  0.76472337  0.86786271     0.15200
H316        H  0.34661228  0.80982796  0.89825416     0.15700
C317        C  0.45466923  0.71223755  0.69883343    -0.13900
C318        C  0.46420869  0.76382181  0.71338869    -0.29000
H319        H  0.45913063  0.69595188  0.65700646     0.15200
H320        H  0.46170827  0.77910381  0.75612593     0.15700
C321        C  0.56213457  0.20933230  0.75918846    -0.13900
C322        C  0.55093023  0.25864191  0.74509787    -0.29000
H323        H  0.55695322  0.19371740  0.79991234     0.15200
H324        H  0.55415851  0.27241714  0.70301204     0.15700
C325        C  0.45122011  0.42911077  0.82383278    -0.13900
C326        C  0.47548654  0.41452856  0.78905832    -0.29000
H327        H  0.44952965  0.40918181  0.86343234     0.15200
H328        H  0.47693201  0.43199591  0.74822784     0.11700
C329        C  0.33488653  0.57260030  0.57791191    -0.13900
C330        C  0.31737582  0.56182296  0.62323278    -0.29000
H331        H  0.36139962  0.58191425  0.58234985     0.15200
H332        H  0.29038532  0.55804260  0.62002048     0.15700
C333        C  0.30348245  0.89542411  0.12933392    -0.13900
C334        C  0.31929440  0.89103226  0.08079909    -0.29000
H335        H  0.27642335  0.89520160  0.12994993     0.15200
H336        H  0.34619509  0.88638107  0.08111816     0.15700
C337        C  0.44541864  0.88834263  0.50034480    -0.13900
C338        C  0.45387325  0.84212534  0.52546726    -0.29000
H339        H  0.45112690  0.92783337  0.52076677     0.15200
H340        H  0.44564052  0.80288122  0.50694725     0.15700
C341        C  0.31514017  0.71148731  0.37996141    -0.13900
C342        C  0.33276941  0.67544344  0.40921802    -0.29000
H343        H  0.28822046  0.70692437  0.37578348     0.15200
H344        H  0.35938838  0.68229945  0.41606697     0.15700
C345        C  0.56659207  0.11571073  0.41834967    -0.13900
C346        C  0.58047683  0.15358852  0.45368455    -0.29000
H347        H  0.56771041  0.07273264  0.42813850     0.15200
H348        H  0.57680395  0.19673919  0.44664642     0.15700
C349        C  0.45172976  0.05485530  0.26973562    -0.13900
C350        C  0.46137270  0.08854571  0.31258474    -0.29000
H351        H  0.46576017  0.05399254  0.23153924     0.15200
H352        H  0.44826083  0.08686190  0.35162532     0.15700
C353        C  0.70834749  0.06672601  0.82541767    -0.13900
C354        C  0.69416802  0.08263355  0.87347826    -0.29000
H355        H  0.73473309  0.05740411  0.82541049     0.15200
H356        H  0.66877514  0.09747497  0.87207291     0.15700
C357        C  0.71314173  0.39112784  0.32349010    -0.13900
C358        C  0.69776748  0.38460953  0.37198830    -0.29000
H359        H  0.74017031  0.39052548  0.32198860     0.15200
H360        H  0.67078211  0.37982453  0.37182473     0.15700
C361        C  0.56435898  0.38877699  0.96044219    -0.13900
C362        C  0.55207009  0.34202651  0.93653328    -0.29000
H363        H  0.56259145  0.42669193  0.93843164     0.15200
H364        H  0.55665853  0.30347068  0.95624510     0.15700
C365        C  0.71234764  0.18684858  0.05031398    -0.13900
C366        C  0.68361073  0.21332240  0.04341088    -0.29000
H367        H  0.72974534  0.19956885  0.08377030     0.15200
H368        H  0.66560687  0.19762152  0.01207081     0.15700
C369        C  0.54786672  0.22021505  0.24444484    -0.13900
C370        C  0.56394281  0.26663861  0.26165162    -0.29000
H371        H  0.54365846  0.21093260  0.20024058     0.15200
H372        H  0.56605528  0.27690883  0.30602974     0.15700
C373        C  0.43733824  0.65058400  0.00505961    -0.13900
C374        C  0.45246097  0.61222511  0.03461909    -0.29000
H375        H  0.44051129  0.69355617  0.01744779     0.15200
H376        H  0.45201255  0.56993115  0.01900030     0.15700
C377        C  0.46934519  0.71764767  0.21557736    -0.13900
C378        C  0.45452380  0.76328340  0.19854577    -0.29000
H379        H  0.47128942  0.70917087  0.25960750     0.15200
H380        H  0.45471611  0.77241448  0.15456948     0.15700
C381        C  0.55560171  0.58541843  0.14442843    -0.13900
C382        C  0.56619803  0.55733624  0.18833691    -0.29000
H383        H  0.56815336  0.57997971  0.10500284     0.15200
H384        H  0.55275439  0.55979119  0.22709401     0.15700
C385        C  0.28955544  0.45064248  0.95620441    -0.13900
C386        C  0.28540584  0.47238059  0.90607857    -0.29000
H387        H  0.31052971  0.46339064  0.98324631     0.15200
H388        H  0.26289330  0.46293683  0.88134718     0.15700
C389        C  0.21915305  0.27051630  0.89116157    -0.13900
C390        C  0.20466618  0.30371438  0.92922393    -0.29000
H391        H  0.24562997  0.27456804  0.88343650     0.15200
H392        H  0.17888349  0.29614181  0.93999356     0.15700
C393        C  0.23455986  0.94527668  0.94297309    -0.13900
C394        C  0.23520335  0.96905879  0.89347722    -0.29000
H395        H  0.21585949  0.95659685  0.97311708     0.15200
H396        H  0.25590403  0.96136641  0.86596827     0.15700
C397        C  0.06389287  0.93527439  0.79331656    -0.13900
C398        C  0.04858399  0.91611752  0.83804540    -0.29000
H399        H  0.05530247  0.92294799  0.75153771     0.15200
H400        H  0.05656061  0.93203721  0.87914971     0.15700
C401        C  0.72428041  0.97404318  0.52097713    -0.13900
C402        C  0.74767034  0.94310434  0.54428813    -0.29000
H403        H  0.71862991  0.96925186  0.47657799     0.15200
H404        H  0.75144042  0.94468684  0.58928772     0.15700
C405        C  0.81411555  0.76098204  0.57697119    -0.13900
C406        C  0.82428186  0.78804892  0.53254198    -0.29000
H407        H  0.79029900  0.77024319  0.59545773     0.15200
H408        H  0.84676355  0.77530663  0.51159730     0.15700
C409        C  0.96757264  0.71790912  0.74851893    -0.13900
C410        C  0.97401872  0.77107471  0.74087313    -0.29000
H411        H  0.97412758  0.70123705  0.78863181     0.15200
H412        H  0.96897886  0.78902926  0.70091983     0.15700
C413        C  0.78517104  0.46555245  0.55950037    -0.13900
C414        C  0.78566327  0.43760303  0.51030666    -0.29000
H415        H  0.76369687  0.46153944  0.58593797     0.15200
H416        H  0.80545084  0.44492467  0.48123613     0.15700
C417        C  0.05952214  0.27196801  0.72372865    -0.13900
C418        C  0.06384421  0.21877855  0.71155999    -0.29000
H419        H  0.06686644  0.28972039  0.76438705     0.15200
H420        H  0.05492285  0.20115844  0.67164290     0.15700
C421        C  0.96004472  0.42761190  0.63726048    -0.13900
C422        C  0.98757860  0.42463839  0.66936486    -0.29000
H423        H  0.95685033  0.39971648  0.60114350     0.15200
H424        H  0.99101612  0.45083783  0.70662752     0.15700
C425        C  0.28697779  0.01781300  0.40346810    -0.13900
C426        C  0.29459464  0.05543303  0.44407054    -0.29000
H427        H  0.26129910  0.01326362  0.38837642     0.15200
H428        H  0.31944652  0.05730678  0.46298801     0.15700
C429        C  0.22804874  0.10168236  0.60685927    -0.13900
C430        C  0.19604959  0.09762451  0.62133971    -0.29000
H431        H  0.24799202  0.09720503  0.63760309     0.15200
H432        H  0.17669874  0.09791421  0.58889881     0.15700
C433        C  0.21995591  0.39750704  0.11052689    -0.13900
C434        C  0.18766050  0.39614856  0.12369892    -0.29000
H435        H  0.23917188  0.40377783  0.14280821     0.15200
H436        H  0.16864559  0.39448685  0.09067613     0.15700
C437        C  0.06365987  0.33592096  0.53063401    -0.13900
C438        C  0.08228390  0.37745630  0.51289588    -0.29000
H439        H  0.06286144  0.29687306  0.50756581     0.15200
H440        H  0.08464277  0.41487726  0.53864149     0.15700
C441        C  0.21355560  0.21700034  0.38822954    -0.13900
C442        C  0.20273920  0.18789478  0.43096630    -0.29000
H443        H  0.23872903  0.21152755  0.37348880     0.15200
H444        H  0.17839648  0.19646192  0.44789049     0.15700
C445        C  0.24254903  0.50960933  0.39119188    -0.13900
C446        C  0.24409355  0.53742975  0.44038313    -0.29000
H447        H  0.26363863  0.51148470  0.36364210     0.15200
H448        H  0.22471845  0.53163998  0.47058238     0.15700
C449        C  0.94394080  0.59966110  0.44530592    -0.13900
C450        C  0.95894144  0.64315253  0.42374060    -0.29000
H451        H  0.94420549  0.56055632  0.42231103     0.15200
H452        H  0.95662535  0.68338133  0.44384014     0.15700
C453        C  0.03729841  0.55376281  0.28831617    -0.13900
C454        C  0.06288140  0.54634657  0.32408736    -0.29000
H455        H  0.03574441  0.53077723  0.24875624     0.15200
H456        H  0.06486863  0.57177541  0.36213651     0.15700
C457        C  0.73292745  0.50820796  0.05375175    -0.13900
C458        C  0.72926907  0.53440370  0.00572503    -0.29000
H459        H  0.75683665  0.51031661  0.07595591     0.15200
H460        H  0.70671450  0.52802191  0.98032287     0.15700
C461        C  0.80257531  0.57787242  0.85059190    -0.13900
C462        C  0.83486368  0.58203528  0.83688623    -0.29000
H463        H  0.78359002  0.56845284  0.81859952     0.15200
H464        H  0.85375007  0.58711305  0.86990432     0.15700
C465        C  0.79662413  0.88631809  0.36500935    -0.13900
C466        C  0.82708297  0.87804876  0.34477367    -0.29000
H467        H  0.77669424  0.90150510  0.33873168     0.15200
H468        H  0.84719182  0.86784362  0.37352247     0.15700
C469        C  0.93945207  0.87961118  0.95958983    -0.13900
C470        C  0.95204418  0.83489588  0.93451099    -0.29000
H471        H  0.94415328  0.91950459  0.94258547     0.15200
H472        H  0.94541604  0.79453796  0.94860953     0.15700
C473        C  0.81799927  0.67690536  0.02950781    -0.13900
C474        C  0.80428391  0.70955243  0.06894021    -0.29000
H475        H  0.84324416  0.68562890  0.01656726     0.15200
H476        H  0.77837144  0.70356685  0.07972099     0.15700
C477        C  0.95895941  0.75827900  0.24190679    -0.13900
C478        C  0.96354036  0.70507770  0.22947134    -0.29000
H479        H  0.96822872  0.77537943  0.28183984     0.15200
H480        H  0.95583019  0.68728733  0.18903095     0.15700
C481        C  0.77815846  0.00393054  0.06573266    -0.13900
C482        C  0.77740469  0.02139586  0.01315492    -0.29000
H483        H  0.75844299  0.01558833  0.09388264     0.15200
H484        H  0.79512888  0.00585150  0.98317826     0.15700
C485        C  0.07196828  0.10032422  0.03685735    -0.13900
C486        C  0.08832498  0.13940295  0.01033265    -0.29000
H487        H  0.07093516  0.05887946  0.01888509     0.15200
H488        H  0.08655315  0.18182652  0.02487206     0.15700
C489        C  0.05378400  0.19991176  0.21997385    -0.13900
C490        C  0.06475009  0.24989990  0.20719592    -0.29000
H491        H  0.05392488  0.18753520  0.26294972     0.15200
H492        H  0.06229229  0.26222955  0.16424924     0.15700
C493        C  0.95293675  0.04944244  0.18049379    -0.13900
C494        C  0.96713771  0.06843819  0.13479554    -0.29000
H495        H  0.96448411  0.05774967  0.22132800     0.15200
H496        H  0.95673219  0.05561832  0.09408822     0.15700
loop_ 
_geom_bond_atom_site_label_1 
_geom_bond_atom_site_label_2 
_geom_bond_distance 
_geom_bond_site_symmetry_2 
_ccdc_geom_bond_type 
C1            C2   1.402   1_655  A
C1            C6   1.408   1_655  A
C1          C494   1.480       .  S
C2            C3   1.396       .  A
C2            H7   1.085       .  S
C3            C4   1.403       .  A
C3          C485   1.481       .  S
C4            C5   1.408       .  A
C4            H8   1.084       .  S
C5            C6   1.405       .  A
C5          C489   1.482       .  S
C6            H9   1.083   1_455  S
O10          C26   1.272       .  A
O10         Zn16   2.009       .  S
C11         C481   1.478   1_565  S
C11          O27   1.276       .  A
C11          O24   1.279       .  A
O12          C25   1.270   1_565  A
O12         Cd19   2.056       .  S
O13          C31   1.280       .  A
O13         Cd22   2.114       .  S
O14          C28   1.275       .  A
O14         Cd18   2.054       .  S
O15          C26   1.275       .  A
O15         Cd18   2.072       .  S
Zn16         O27   2.027       .  S
Zn16         O29   2.023   1_565  S
Zn16         O21   1.941       .  S
O17          C28   1.281       .  A
O17         Cd22   2.113       .  S
Cd18         O20   2.079       .  S
Cd18         O21   2.000       .  S
Cd19         O23   2.044       .  S
Cd19         O32   2.038       .  S
Cd19         O21   1.986       .  S
O20          C30   1.275       .  A
O21         Cd22   2.015       .  S
Cd22         O24   2.096       .  S
O23          C30   1.269       .  A
C25         C493   1.476       .  S
C25          O29   1.276       .  A
C26         C469   1.473   1_554  S
C28         C474   1.486       .  S
C30         C477   1.468       .  S
C31         C466   1.472       .  S
C31          O32   1.270       .  A
C33         C458   1.480   1_556  S
C33          N34   1.364       .  A
C33          N38   1.364   1_556  A
N34          C35   1.361       .  A
C35         C461   1.484       .  S
C35          N36   1.357       .  A
N36          C37   1.356       .  A
C37         C473   1.476   1_556  S
C37          N38   1.361   1_556  A
C39          C40   1.411   1_455  A
C39          C44   1.404   1_455  A
C39         C453   1.483       .  S
C40          C41   1.404       .  A
C40          H45   1.084   1_655  S
C41          C42   1.395       .  A
C41         C450   1.481       .  S
C42          C43   1.407       .  A
C42          H46   1.084       .  S
C43          C44   1.402       .  A
C43         C478   1.479       .  S
C44          H47   1.084   1_655  S
O48          C64   1.274       .  A
O48         Zn54   2.009       .  S
C49         C445   1.477       .  S
C49          O65   1.277       .  A
C49          O62   1.274       .  A
O50          C63   1.277       .  A
O50         Cd57   2.086       .  S
O51          C69   1.277       .  A
O51         Cd60   2.075       .  S
O52          C66   1.278       .  A
O52         Cd56   2.076       .  S
O53          C64   1.279       .  A
O53         Cd56   2.086       .  S
Zn54         O65   2.033       .  S
Zn54         O67   2.002       .  S
Zn54         O59   1.932       .  S
O55          C66   1.279       .  A
O55         Cd60   2.097       .  S
Cd56         O58   2.095       .  S
Cd56         O59   1.996       .  S
Cd57         O61   2.056       .  S
Cd57         O70   2.067       .  S
Cd57         O59   1.989       .  S
O58          C68   1.278       .  A
O59         Cd60   1.993       .  S
Cd60         O62   2.072       .  S
O61          C68   1.272       .  A
C63         C454   1.474       .  S
C63          O67   1.271       .  A
C64         C438   1.476       .  S
C66         C441   1.486       .  S
C68         C490   1.475       .  S
C69         C434   1.470       .  S
C69          O70   1.275       .  A
C71         C426   1.472       .  S
C71          N72   1.364       .  A
C71          N76   1.359       .  A
N72          C73   1.362       .  A
C73         C442   1.479       .  S
C73          N74   1.356       .  A
N74          C75   1.358       .  A
C75         C429   1.477       .  S
C75          N76   1.356       .  A
C77          C78   1.410       .  A
C77          C82   1.397       .  A
C77         C422   1.473   1_455  S
C78          C79   1.403       .  A
C78          H83   1.084       .  S
C79          C80   1.394       .  A
C79         C437   1.476       .  S
C80          C81   1.405       .  A
C80          H84   1.084       .  S
C81          C82   1.397       .  A
C81         C417   1.468       .  S
C82          H85   1.084       .  S
O86         C102   1.274       .  A
O86         Zn92   2.012       .  S
C87         C449   1.478       .  S
C87         O103   1.272       .  A
C87         O100   1.277       .  A
O88         C101   1.276       .  A
O88         Cd95   2.078       .  S
O89         C107   1.277       .  A
O89         Cd98   2.092       .  S
O90         C104   1.279       .  A
O90         Cd94   2.092       .  S
O91         C102   1.275       .  A
O91         Cd94   2.081       .  S
Zn92        O103   2.005       .  S
Zn92        O105   1.980       .  S
Zn92         O97   1.934       .  S
O93         C104   1.277       .  A
O93         Cd98   2.064       .  S
Cd94         O96   2.091       .  S
Cd94         O97   2.003       .  S
Cd95         O99   2.084       .  S
Cd95        O108   2.051       .  S
Cd95         O97   1.990       .  S
O96         C106   1.278       .  A
O97         Cd98   2.003       .  S
Cd98        O100   2.093       .  S
O99         C106   1.277       .  A
C101        C421   1.466       .  S
C101        O105   1.268       .  A
C102        C413   1.474       .  S
C104        C405   1.478       .  S
C106        C462   1.481       .  S
C107        C409   1.472       .  S
C107        O108   1.271       .  A
C109        C402   1.476       .  S
C109        N110   1.361       .  A
C109        N114   1.364       .  A
N110        C111   1.358       .  A
C111        C406   1.472       .  S
C111        N112   1.354       .  A
N112        C113   1.357       .  A
C113        C465   1.480       .  S
C113        N114   1.358       .  A
C115        C116   1.406   1_455  A
C115        C120   1.414       .  A
C115        C398   1.488       .  S
C116        C117   1.401       .  A
C116        H121   1.084   1_655  S
C117        C118   1.393       .  A
C117        C470   1.476       .  S
C118        C119   1.404       .  A
C118        H122   1.085       .  S
C119        C120   1.405   1_655  A
C119        C410   1.481       .  S
C120        H123   1.081       .  S
O124        C140   1.279       .  A
O124       Zn130   2.034       .  S
C125        C486   1.473   1_556  S
C125        O141   1.277       .  A
C125        O138   1.270       .  A
O126        C139   1.272   1_545  A
O126       Cd133   2.061       .  S
O127        C145   1.273       .  A
O127       Cd136   2.049       .  S
O128        C142   1.278       .  A
O128       Cd132   2.105       .  S
O129        C140   1.277       .  A
O129       Cd132   2.070       .  S
Zn130       O141   2.041       .  S
Zn130       O143   2.035   1_545  S
Zn130       O135   1.942       .  S
O131        C142   1.271       .  A
O131       Cd136   2.038       .  S
Cd132       O134   2.096       .  S
Cd132       O135   2.004       .  S
Cd133       O137   2.053       .  S
Cd133       O146   2.044       .  S
Cd133       O135   1.988       .  S
O134        C144   1.278       .  A
O135       Cd136   1.981       .  S
Cd136       O138   2.048       .  S
O137        C144   1.272       .  A
C139        C397   1.479       .  S
C139        O143   1.277       .  A
C140        C394   1.472   1_545  S
C142        C389   1.481       .  S
C144        C430   1.474       .  S
C145        C418   1.460       .  S
C145        O146   1.269       .  A
C147        C385   1.469       .  S
C147        N148   1.359   1_556  A
C147        N152   1.362       .  A
N148        C149   1.356       .  A
C149        C433   1.471       .  S
C149        N150   1.356       .  A
N150        C151   1.355   1_554  A
C151        C390   1.469       .  S
C151        N152   1.358       .  A
C153        C154   1.408       .  A
C153        C158   1.401       .  A
C153        C381   1.475       .  S
C154        C155   1.409       .  A
C154        H159   1.083       .  S
C155        C156   1.408       .  A
C155        C377   1.483       .  S
C156        C157   1.398       .  A
C156        H160   1.084       .  S
C157        C158   1.394       .  A
C157        C374   1.476       .  S
C158        H161   1.085       .  S
O162        C178   1.277       .  A
O162       Zn168   2.034       .  S
C163        C361   1.474   1_554  S
C163        O179   1.274       .  A
C163        O176   1.274       .  A
O164        C177   1.275       .  A
O164       Cd171   2.080       .  S
O165        C183   1.275       .  A
O165       Cd174   2.081       .  S
O166        C180   1.282       .  A
O166       Cd170   2.119       .  S
O167        C178   1.278       .  A
O167       Cd170   2.092       .  S
Zn168       O179   2.023       .  S
Zn168       O181   2.009       .  S
Zn168       O173   1.939       .  S
O169        C180   1.271       .  A
O169       Cd174   2.042       .  S
Cd170       O172   2.096       .  S
Cd170       O173   2.009       .  S
Cd171       O175   2.062       .  S
Cd171       O184   2.065       .  S
Cd171       O173   1.994       .  S
O172        C182   1.279       .  A
O173       Cd174   1.993       .  S
Cd174       O176   2.062       .  S
O175        C182   1.277       .  A
C177        C382   1.482       .  S
C177        O181   1.276       .  A
C178        C457   1.481       .  S
C180        C366   1.476       .  S
C182        C357   1.479       .  S
C183        C370   1.475       .  S
C183        O184   1.273       .  A
C185        C482   1.479   1_556  S
C185        N186   1.366       .  A
C185        N190   1.361   1_556  A
N186        C187   1.364       .  A
C187        C354   1.485       .  S
C187        N188   1.358       .  A
N188        C189   1.360   1_556  A
C189        C365   1.484       .  S
C189        N190   1.356       .  A
C191        C192   1.406       .  A
C191        C196   1.398       .  A
C191        C350   1.471       .  S
C192        C193   1.409       .  A
C192        H197   1.084       .  S
C193        C194   1.411       .  A
C193        C369   1.484       .  S
C194        C195   1.401       .  A
C194        H198   1.083       .  S
C195        C196   1.392       .  A
C195        C345   1.474       .  S
C196        H199   1.085       .  S
O200        C216   1.276       .  A
O200       Zn206   2.026       .  S
C201        C337   1.478       .  S
C201        O217   1.275       .  A
C201        O214   1.275       .  A
O202        C215   1.272   1_565  A
O202       Cd209   2.069       .  S
O203        C221   1.275       .  A
O203       Cd212   2.081       .  S
O204        C218   1.278       .  A
O204       Cd208   2.099       .  S
O205        C216   1.276       .  A
O205       Cd208   2.079       .  S
Zn206       O217   2.029       .  S
Zn206       O219   2.011   1_565  S
Zn206       O211   1.941       .  S
O207        C218   1.275       .  A
O207       Cd212   2.061       .  S
Cd208       O210   2.084       .  S
Cd208       O211   2.011       .  S
Cd209       O213   2.055       .  S
Cd209       O222   2.058       .  S
Cd209       O211   1.994       .  S
O210        C220   1.275       .  A
O211       Cd212   2.002       .  S
Cd212       O214   2.071       .  S
O213        C220   1.275       .  A
C215        C349   1.479       .  S
C215        O219   1.275       .  A
C216        C425   1.478   1_565  S
C218        C341   1.484       .  S
C220        C333   1.478       .  S
C221        C378   1.472       .  S
C221        O222   1.272       .  A
C223        C446   1.472       .  S
C223        N224   1.364       .  A
C223        N228   1.359       .  A
N224        C225   1.362       .  A
C225        C342   1.474       .  S
C225        N226   1.355       .  A
N226        C227   1.354       .  A
C227        C329   1.471       .  S
C227        N228   1.358       .  A
C229        C230   1.410       .  A
C229        C234   1.403       .  A
C229        C326   1.484       .  S
C230        C231   1.400       .  A
C230        H235   1.083       .  S
C231        C232   1.395       .  A
C231        C362   1.477       .  S
C232        C233   1.405       .  A
C232        H236   1.083       .  S
C233        C234   1.405       .  A
C233        C322   1.479       .  S
C234        H237   1.084       .  S
O238        C254   1.274       .  A
O238       Zn244   2.016       .  S
C239        C386   1.471       .  S
C239        O255   1.274       .  A
C239        O252   1.273       .  A
O240        C253   1.278       .  A
O240       Cd247   2.099       .  S
O241        C259   1.274       .  A
O241       Cd250   2.062       .  S
O242        C256   1.273       .  A
O242       Cd246   2.039       .  S
O243        C254   1.271       .  A
O243       Cd246   2.059       .  S
Zn244       O255   2.012       .  S
Zn244       O257   1.981       .  S
Zn244       O249   1.929       .  S
O245        C256   1.276       .  A
O245       Cd250   2.092       .  S
Cd246       O248   2.054       .  S
Cd246       O249   1.984       .  S
Cd247       O251   2.077       .  S
Cd247       O260   2.080       .  S
Cd247       O249   2.006       .  S
O248        C258   1.273       .  A
O249       Cd250   1.999       .  S
Cd250       O252   2.067       .  S
O251        C258   1.275       .  A
C253        C325   1.470       .  S
C253        O257   1.269       .  A
C254        C373   1.470   1_556  S
C256        C313   1.479       .  S
C258        C317   1.473       .  S
C259        C330   1.472       .  S
C259        O260   1.278       .  A
C261        C393   1.473       .  S
C261        N262   1.363       .  A
C261        N266   1.363   1_556  A
N262        C263   1.356       .  A
C263        C314   1.463       .  S
C263        N264   1.351       .  A
N264        C265   1.351   1_556  A
C265        C334   1.467       .  S
C265        N266   1.360       .  A
C267        C268   1.411       .  A
C267        C272   1.402       .  A
C267        C309   1.485       .  S
C268        C269   1.404       .  A
C268        H273   1.083       .  S
C269        C270   1.399       .  A
C269        C338   1.483       .  S
C270        C271   1.406       .  A
C270        H274   1.084       .  S
C271        C272   1.403       .  A
C271        C318   1.479       .  S
C272        H275   1.084       .  S
O276        C292   1.273       .  A
O276       Zn282   2.015       .  S
C277        C401   1.470   1_545  S
C277        O293   1.270       .  A
C277        O290   1.277       .  A
O278        C291   1.280       .  A
O278       Cd285   2.103   1_565  S
O279        C297   1.278       .  A
O279       Cd288   2.091       .  S
O280        C294   1.272       .  A
O280       Cd284   2.033       .  S
O281        C292   1.269       .  A
O281       Cd284   2.058       .  S
Zn282       O293   1.997       .  S
Zn282       O295   1.985   1_545  S
Zn282       O287   1.932       .  S
O283        C294   1.279       .  A
O283       Cd288   2.108       .  S
Cd284       O286   2.047       .  S
Cd284       O287   1.989       .  S
Cd285       O289   2.077       .  S
Cd285       O298   2.103       .  S
Cd285       O287   2.011       .  S
O286        C296   1.272       .  A
O287       Cd288   2.008       .  S
Cd288       O290   2.091       .  S
O289        C296   1.274       .  A
C291        C310   1.472       .  S
C291        O295   1.270       .  A
C292        C346   1.473       .  S
C294        C305   1.482       .  S
C296        C321   1.470       .  S
C297        C353   1.487       .  S
C297        O298   1.281       .  A
C299        C414   1.471       .  S
C299        N300   1.362       .  A
C299        N304   1.363       .  A
N300        C301   1.359       .  A
C301        C358   1.473       .  S
C301        N302   1.354       .  A
N302        C303   1.355       .  A
C303        C306   1.469       .  S
C303        N304   1.357       .  A
C305        C306   1.349       .  D
C305        H307   1.086       .  S
C306        H308   1.087       .  S
C309        C310   1.342       .  D
C309        H311   1.086       .  S
C310        H312   1.087       .  S
C313        C314   1.345       .  D
C313        H315   1.087       .  S
C314        H316   1.087       .  S
C317        C318   1.345       .  D
C317        H319   1.087       .  S
C318        H320   1.087       .  S
C321        C322   1.346       .  D
C321        H323   1.086       .  S
C322        H324   1.087       .  S
C325        C326   1.341       .  D
C325        H327   1.087       .  S
C326        H328   1.086       .  S
C329        C330   1.341       .  D
C329        H331   1.087       .  S
C330        H332   1.087       .  S
C333        C334   1.341       .  D
C333        H335   1.086       .  S
C334        H336   1.087       .  S
C337        C338   1.345       .  D
C337        H339   1.086       .  S
C338        H340   1.087       .  S
C341        C342   1.347       .  D
C341        H343   1.087       .  S
C342        H344   1.087       .  S
C345        C346   1.340       .  D
C345        H347   1.087       .  S
C346        H348   1.087       .  S
C349        C350   1.341       .  D
C349        H351   1.087       .  S
C350        H352   1.087       .  S
C353        C354   1.346       .  D
C353        H355   1.087       .  S
C354        H356   1.087       .  S
C357        C358   1.344       .  D
C357        H359   1.087       .  S
C358        H360   1.088       .  S
C361        C362   1.343       .  D
C361        H363   1.087       .  S
C362        H364   1.087       .  S
C365        C366   1.341       .  D
C365        H367   1.086       .  S
C366        H368   1.087       .  S
C369        C370   1.345       .  D
C369        H371   1.086       .  S
C370        H372   1.087       .  S
C373        C374   1.341       .  D
C373        H375   1.087       .  S
C374        H376   1.087       .  S
C377        C378   1.345       .  D
C377        H379   1.086       .  S
C378        H380   1.088       .  S
C381        C382   1.344       .  D
C381        H383   1.087       .  S
C382        H384   1.087       .  S
C385        C386   1.342       .  D
C385        H387   1.086       .  S
C386        H388   1.087       .  S
C389        C390   1.348       .  D
C389        H391   1.087       .  S
C390        H392   1.087       .  S
C393        C394   1.343       .  D
C393        H395   1.086       .  S
C394        H396   1.087       .  S
C397        C398   1.345       .  D
C397        H399   1.084       .  S
C398        H400   1.087       .  S
C401        C402   1.340       .  D
C401        H403   1.087       .  S
C402        H404   1.087       .  S
C405        C406   1.344       .  D
C405        H407   1.086       .  S
C406        H408   1.087       .  S
C409        C410   1.342       .  D
C409        H411   1.088       .  S
C410        H412   1.086       .  S
C413        C414   1.344       .  D
C413        H415   1.087       .  S
C414        H416   1.086       .  S
C417        C418   1.338       .  D
C417        H419   1.087       .  S
C418        H420   1.088       .  S
C421        C422   1.338       .  D
C421        H423   1.088       .  S
C422        H424   1.087       .  S
C425        C426   1.343       .  D
C425        H427   1.088       .  S
C426        H428   1.086       .  S
C429        C430   1.341       .  D
C429        H431   1.086       .  S
C430        H432   1.088       .  S
C433        C434   1.341       .  D
C433        H435   1.086       .  S
C434        H436   1.087       .  S
C437        C438   1.340       .  D
C437        H439   1.086       .  S
C438        H440   1.088       .  S
C441        C442   1.347       .  D
C441        H443   1.087       .  S
C442        H444   1.087       .  S
C445        C446   1.341       .  D
C445        H447   1.088       .  S
C446        H448   1.087       .  S
C449        C450   1.341       .  D
C449        H451   1.087       .  S
C450        H452   1.086       .  S
C453        C454   1.343       .  D
C453        H455   1.086       .  S
C454        H456   1.087       .  S
C457        C458   1.346       .  D
C457        H459   1.087       .  S
C458        H460   1.086   1_554  S
C461        C462   1.348       .  D
C461        H463   1.086       .  S
C462        H464   1.087       .  S
C465        C466   1.341       .  D
C465        H467   1.086       .  S
C466        H468   1.088       .  S
C469        C470   1.341       .  D
C469        H471   1.087       .  S
C470        H472   1.087       .  S
C473        C474   1.349       .  D
C473        H475   1.087       .  S
C474        H476   1.087       .  S
C477        C478   1.341       .  D
C477        H479   1.088       .  S
C478        H480   1.086       .  S
C481        C482   1.348       .  D
C481        H483   1.087       .  S
C482        H484   1.086   1_554  S
C485        C486   1.340       .  D
C485        H487   1.087       .  S
C486        H488   1.087       .  S
C489        C490   1.342       .  D
C489        H491   1.086       .  S
C490        H492   1.088       .  S
C493        C494   1.343       .  D
C493        H495   1.086       .  S
C494        H496   1.088       .  S
