geometry optimzed in LAMMPS
_audit_creation_date              2020-11-30 
_audit_creation_method            'lammps2cif' 
_symmetry_space_group_name_H-M    'P1' 
_symmetry_Int_Tables_number       1 
_symmetry_cell_setting            triclinic 
loop_ 
_symmetry_equiv_pos_as_xyz 
  x,y,z 
_cell_length_a                    59.91727402 
_cell_length_b                    59.78582221476806 
_cell_length_c                    59.9142111996915 
_cell_angle_alpha                 89.918795231842 
_cell_angle_beta                  89.99409033326108 
_cell_angle_gamma                 89.90596201447926 
loop_ 
_atom_site_label 
_atom_site_type_symbol 
_atom_site_fract_x 
_atom_site_fract_y 
_atom_site_fract_z 
_atom_site_charge 
C1          C  0.77276787  0.76315174  0.74113662     0.80200
N2          N  0.77719623  0.74622882  0.75559034    -0.78100
C3          C  0.76317421  0.74149302  0.77273058     0.82600
N4          N  0.74417385  0.75374968  0.77520001    -0.78100
C5          C  0.73924226  0.77070493  0.76079889     0.82700
N6          N  0.75364849  0.77516898  0.74375665    -0.79800
C7          C  0.23643386  0.70893175  0.21798256     0.80200
N8          N  0.24118223  0.72672274  0.20463571    -0.78100
C9          C  0.25821980  0.74085829  0.20971326     0.82600
N10         N  0.27037603  0.73707126  0.22853081    -0.78100
C11         C  0.26580608  0.71939847  0.24214461     0.82700
N12         N  0.24876358  0.70550733  0.23671197    -0.79800
C13         C  0.73822167  0.77284275  0.21900500     0.80200
N14         N  0.73552343  0.75562916  0.20462500    -0.78100
C15         C  0.71878473  0.74065643  0.20711814     0.82600
N16         N  0.70431641  0.74309447  0.22451955    -0.78100
C17         C  0.70663434  0.76041287  0.23922134     0.82700
N18         N  0.72377249  0.77509863  0.23634612    -0.79800
C19         C  0.25951673  0.25050934  0.22644574     0.80200
N20         N  0.24132974  0.26347272  0.23060567    -0.78100
C21         C  0.22861388  0.26019036  0.24912970     0.82600
N22         N  0.23427018  0.24358561  0.26357177    -0.78100
C23         C  0.25226322  0.23036023  0.25955661     0.82700
N24         N  0.26471988  0.23379788  0.24094594    -0.79800
C25         C  0.72198657  0.24056946  0.26907136     0.80200
N26         N  0.73991110  0.22670158  0.27032648    -0.78100
C27         C  0.74338932  0.21054761  0.25482697     0.82600
N28         N  0.72875550  0.20848676  0.23768252    -0.78100
C29         C  0.71074460  0.22223303  0.23594953     0.82700
N30         N  0.70752368  0.23828627  0.25171017    -0.79800
C31         C  0.73418153  0.21332988  0.72053454     0.80200
N32         N  0.74854729  0.21061047  0.73783165    -0.78100
C33         C  0.76593554  0.22473522  0.74103011     0.82600
N34         N  0.76887553  0.24197560  0.72655420    -0.78100
C35         C  0.75471264  0.24514138  0.70910073     0.82700
N36         N  0.73734849  0.23075430  0.70624138    -0.79800
C37         C  0.22247905  0.74443038  0.76563828     0.80200
N38         N  0.24106304  0.73169847  0.76832534    -0.78100
C39         C  0.24457998  0.71325544  0.75556766     0.82600
N40         N  0.22906003  0.70756398  0.73999421    -0.78100
C41         C  0.21015772  0.71996125  0.73737374     0.82700
N42         N  0.20709291  0.73851692  0.75012071    -0.79800
O43         O  0.05421243  0.02818557  0.00082248    -0.88400
C44         C  0.99178116  0.03141563  0.97521280     0.87600
Mg45       Mg  0.06791054  0.99762451  0.01269508     1.58100
O46         O  0.99746081  0.05493170  0.02841586    -0.88100
O47         O  0.04711403  0.06198790  0.01292063    -0.75500
C48         C  0.98902842  0.95577129  0.07912934     0.92700
O49         O  0.02765519  0.99089937  0.97372342    -0.75300
O50         O  0.00563906  0.94883048  0.06772102    -0.82800
Mg51       Mg  0.03999811  0.02716285  0.96817982     1.58000
C52         C  0.95337445  0.04210900  0.07827696     0.92600
O53         O  0.05315997  0.06284908  0.96009159    -0.81000
H54         H  0.01227789  0.07699203  0.04857802    -0.06400
C55         C  0.97388338  0.99128954  0.02683430     0.87500
O56         O  0.05982582  0.00747073  0.04885573    -0.75600
O57         O  0.00940304  0.03959642  0.98223727    -0.88300
O58         O  0.95360983  0.05065288  0.05874294    -0.81100
C59         C  0.95758308  0.08375144  0.99333027     0.92700
C60         C  0.04534056  0.08271291  0.96064983     0.92600
Mg61       Mg  0.99553091  0.01053178  0.06803115     1.58000
O62         O  0.98276145  0.97610283  0.07824010    -0.81000
O63         O  0.00781435  0.04633170  0.06237737    -0.75300
O64         O  0.97803694  0.08294849  0.98763943    -0.81100
O65         O  0.07176039  0.01292785  0.95253612    -0.82800
O66         O  0.05754627  0.95425254  0.05053624    -0.81200
C67         C  0.00577480  0.06026453  0.04651535     0.87000
O68         O  0.02523122  0.99718800  0.05415192    -0.88300
O69         O  0.97985983  0.00887482  0.03594268    -0.88400
O70         O  0.98684990  0.97448265  0.02507390    -0.75500
Mg71       Mg  0.01187732  0.07042350  0.00021450     1.58000
O72         O  0.94998885  0.07128231  0.00883273    -0.82800
H73         H  0.07668157  0.04609433  0.01777614    -0.06600
O74         O  0.03630635  0.98159870  0.00817058    -0.88100
H75         H  0.02138441  0.96033639  0.98719407    -0.06400
H76         H  0.04374353  0.01045694  0.07852171    -0.06600
C77         C  0.02833590  0.97681866  0.98970308     0.87000
C78         C  0.06016468  0.04539533  0.01055130     0.87600
C79         C  0.04289566  0.00499567  0.06134891     0.87600
H80         H  0.95733478  0.99036489  0.01970701    -0.06500
O81         O  0.97467635  0.02921076  0.98761697    -0.75600
Mg82       Mg  0.02232396  0.96575053  0.03747129     1.58000
H83         H  0.99108675  0.02544657  0.95820270    -0.06600
C84         C  0.08286871  0.99577577  0.95853561     0.92600
O85         O  0.08276711  0.96616419  0.02589400    -0.82800
C86         C  0.07744229  0.95445188  0.04275272     0.92700
O87         O  0.02765908  0.08755311  0.97124954    -0.82800
Mg88       Mg  0.96558501  0.03954297  0.02355548     1.58200
O89         O  0.08062272  0.98735956  0.97795155    -0.81100
O90         O  0.96500664  0.02509841  0.08335145    -0.82800
C91         C  0.10422914  0.26804296  0.91743148     0.80200
N92         N  0.10105104  0.24699163  0.92555454    -0.78100
C93         C  0.10986536  0.22891092  0.91507316     0.82600
N94         N  0.12180626  0.23204528  0.89622164    -0.78100
C95         C  0.12533951  0.25267496  0.88764338     0.82700
N96         N  0.11634907  0.27075784  0.89826869    -0.79800
C97         C  0.91106449  0.09263493  0.26568802     0.80200
N98         N  0.89362007  0.10693747  0.26937725    -0.78100
C99         C  0.88348832  0.11754748  0.25192973     0.82600
N100        N  0.89062591  0.11343740  0.23090903    -0.78100
C101        C  0.90775397  0.09930740  0.22683206     0.82700
N102        N  0.91789404  0.08896010  0.24431285    -0.79800
C103        C  0.26479295  0.91362041  0.09827189     0.80200
N104        N  0.26905117  0.89504407  0.11077342    -0.78100
C105        C  0.25209216  0.88297440  0.11989095     0.82600
N106        N  0.23067449  0.88959964  0.11624945    -0.78100
C107        C  0.22600209  0.90795300  0.10368769     0.82700
N108        N  0.24320224  0.91982690  0.09480753    -0.79800
O109        O  0.94997383  0.50218314  0.42021882    -0.88400
C110        C  0.94894705  0.47979199  0.48467653     0.87600
Mg111      Mg  0.97883352  0.51593186  0.40518568     1.58100
O112        O  0.92284733  0.53211295  0.47736636    -0.88100
O113        O  0.91623537  0.51382840  0.42823792    -0.75500
C114        C  0.01924406  0.58725682  0.48054560     0.92700
O115        O  0.98980639  0.47917224  0.44759775    -0.75300
O116        O  0.02618740  0.57580037  0.46401210    -0.82800
Mg117      Mg  0.95398286  0.47049730  0.43670894     1.58000
C118        C  0.93579227  0.58398523  0.52067986     0.92600
O119        O  0.91881733  0.45856389  0.42537061    -0.81000
H120        H  0.89896535  0.55085390  0.46338564    -0.06400
C121        C  0.98688773  0.53354861  0.49887691     0.87500
O122        O  0.96669050  0.55162535  0.41275762    -0.75600
O123        O  0.94082027  0.48589264  0.46668855    -0.88300
O124        O  0.92759951  0.56427738  0.52115661    -0.81100
C125        C  0.89509661  0.49804857  0.51843286     0.92700
C126        C  0.89908302  0.45915915  0.43341447     0.92600
Mg127      Mg  0.96498979  0.57348684  0.47662046     1.58000
O128        O  0.99925245  0.58552044  0.48744432    -0.81000
O129        O  0.92896120  0.56630465  0.46611548    -0.75300
O130        O  0.89673380  0.49075228  0.49850506    -0.81100
O131        O  0.96954743  0.45374654  0.40566055    -0.82800
O132        O  0.02003566  0.55650305  0.41344412    -0.81200
C133        C  0.91606598  0.54976455  0.46904365     0.87000
O134        O  0.97769256  0.55895503  0.44678340    -0.88300
O135        O  0.96870749  0.54191897  0.49357698    -0.88400
O136        O  0.00316051  0.53231150  0.48522781    -0.75500
Mg137      Mg  0.90901972  0.50236363  0.46401648     1.58000
O138        O  0.90721185  0.51414578  0.52535142    -0.82800
H139        H  0.93052666  0.51745228  0.39777257    -0.06600
O140        O  0.99611401  0.51357257  0.43646254    -0.88100
H141        H  0.01950575  0.49499766  0.45146750    -0.06400
H142        H  0.96183155  0.58156831  0.42793269    -0.06600
C143        C  0.00262218  0.49594416  0.44516737     0.87000
C144        C  0.93218937  0.51104763  0.41457598     0.87600
C145        C  0.96870398  0.56488099  0.42917244     0.87600
H146        H  0.98886625  0.52667954  0.51546154    -0.06500
O147        O  0.95022069  0.49288500  0.50134446    -0.75600
Mg148      Mg  0.01023321  0.54415396  0.44912551     1.58000
H149        H  0.95553383  0.46300822  0.48613932    -0.06600
C150        C  0.98464981  0.46108216  0.39253672     0.92600
O151        O  0.00869509  0.53088165  0.38888790    -0.82800
C152        C  0.01992607  0.54815868  0.39381394     0.92700
O153        O  0.89379039  0.47182466  0.44955892    -0.82800
Mg154      Mg  0.93883444  0.52892593  0.50918865     1.58200
O155        O  0.99055692  0.48155405  0.39276745    -0.81100
O156        O  0.95141804  0.58932890  0.50741940    -0.82800
C157        C  0.71310242  0.40827953  0.38651430     0.80200
N158        N  0.73453184  0.41512688  0.38948690    -0.78100
C159        C  0.75185220  0.40407467  0.37989811     0.82600
N160        N  0.74754973  0.38600150  0.36708871    -0.78100
C161        C  0.72639672  0.37875455  0.36376426     0.82700
N162        N  0.70912923  0.38980959  0.37372188    -0.79800
C163        C  0.06079378  0.60502464  0.20563861     0.80200
N164        N  0.05387208  0.59996798  0.22666269    -0.78100
C165        C  0.06534169  0.60720275  0.24476243     0.82600
N166        N  0.08395731  0.61960313  0.24165581    -0.78100
C167        C  0.09134742  0.62485412  0.22093086     0.82700
N168        N  0.07965991  0.61744607  0.20290715    -0.79800
C169        C  0.88041226  0.76923276  0.56700761     0.80200
N170        N  0.88452724  0.74776005  0.56078228    -0.78100
C171        C  0.87653684  0.73023055  0.57274679     0.82600
N172        N  0.86438270  0.73441563  0.59134341    -0.78100
C173        C  0.85993734  0.75564956  0.59804019     0.82700
N174        N  0.86818300  0.77307501  0.58584752    -0.79800
O175        O  0.98554907  0.94036321  0.45007278    -0.88400
C176        C  0.04098879  0.90225592  0.45705655     0.87600
Mg177      Mg  0.98190173  0.96400844  0.42369986     1.58100
O178        O  0.03826733  0.94768578  0.49435623    -0.88100
O179        O  0.98598822  0.94142495  0.48661833    -0.75500
C180        C  0.07957489  0.01656840  0.41683144     0.92700
O181        O  0.01717437  0.92038606  0.41206952    -0.75300
O182        O  0.06292038  0.01254348  0.40423086    -0.82800
Mg183      Mg  0.99563999  0.90700026  0.44089442     1.58000
C184        C  0.09373636  0.98779569  0.50493345     0.92600
O185        O  0.97351862  0.89011814  0.46844492    -0.81000
H186        H  0.02210792  0.96456238  0.51820331    -0.06400
C187        C  0.07551121  0.95715934  0.43877645     0.87500
O188        O  0.99330028  0.99279824  0.44619099    -0.75600
O189        O  0.02316911  0.91054726  0.46344407    -0.88300
O190        O  0.08807337  0.96723146  0.50666767    -0.81100
C191        C  0.06410986  0.89761513  0.51648866     0.92700
C192        C  0.97556021  0.88433434  0.48894206     0.92600
Mg193      Mg  0.05763498  0.99639167  0.46505328     1.58000
O194        O  0.07981172  0.01055642  0.43726205    -0.81000
O195        O  0.03638257  0.98436178  0.49467023    -0.75300
O196        O  0.04354115  0.89751273  0.51111360    -0.81100
O197        O  0.96800677  0.90292009  0.41451795    -0.82800
O198        O  0.00928736  0.00735340  0.39346055    -0.81200
C199        C  0.03209317  0.96535116  0.50319343     0.87000
O200        O  0.02978710  0.99397918  0.44293525    -0.88300
O201        O  0.06727101  0.96286188  0.45683193    -0.88400
O202        O  0.06673527  0.96260895  0.42022970    -0.75500
Mg203      Mg  0.01586154  0.91996194  0.49724662     1.58000
O204        O  0.07703038  0.91367809  0.51115036    -0.82800
H205        H  0.96172955  0.95569161  0.46773622    -0.06600
O206        O  0.01528790  0.95706629  0.41296849    -0.88100
H207        H  0.03179385  0.94056760  0.38910644    -0.06400
H208        H  0.01265260  0.01647461  0.46071279    -0.06600
C209        C  0.02158816  0.93953749  0.40395328     0.87000
C210        C  0.97693076  0.94592914  0.46798353     0.87600
C211        C  0.01206296  0.00189675  0.45007399     0.87600
H212        H  0.09027450  0.94673770  0.43877757    -0.06500
O213        O  0.05974043  0.91094262  0.46180786    -0.75600
Mg214      Mg  0.03731949  0.98472623  0.40893783     1.58000
H215        H  0.04056938  0.88758088  0.44654060    -0.06600
C216        C  0.96351083  0.91670975  0.39883307     0.92600
O217        O  0.97683086  0.98958736  0.39650136    -0.82800
C218        C  0.98856143  0.00546922  0.38865194     0.92700
O219        O  0.99158869  0.89145612  0.50092231    -0.82800
Mg220      Mg  0.07187467  0.93991158  0.48390533     1.58200
O221        O  0.96871499  0.93726282  0.40032786    -0.81100
O222        O  0.08633249  0.00001336  0.48919008    -0.82800
C223        C  0.10239597  0.70579145  0.56607813     0.80200
N224        N  0.10008839  0.72713914  0.55848394    -0.78100
C225        C  0.10626418  0.74483123  0.57126805     0.82600
N226        N  0.11469600  0.74090618  0.59189852    -0.78100
C227        C  0.11701342  0.71982785  0.59998686     0.82700
N228        N  0.11081322  0.70226710  0.58694140    -0.79800
C229        C  0.27201916  0.06276006  0.37512075     0.80200
N230        N  0.25118293  0.05406058  0.37747275    -0.78100
C231        C  0.23307252  0.06500340  0.36929871     0.82600
N232        N  0.23602000  0.08485782  0.35886434    -0.78100
C233        C  0.25659254  0.09395830  0.35633218     0.82700
N234        N  0.27464839  0.08286719  0.36467475    -0.79800
C235        C  0.91581325  0.87279732  0.20528607     0.80200
N236        N  0.92417020  0.87709860  0.22600444    -0.78100
C237        C  0.91274601  0.87090718  0.24464910     0.82600
N238        N  0.89280348  0.86050137  0.24229812    -0.78100
C239        C  0.88405522  0.85621998  0.22190813     0.82700
N240        N  0.89569930  0.86240989  0.20345824    -0.79800
O241        O  0.50485542  0.42591726  0.94737605    -0.88400
C242        C  0.48149738  0.48966541  0.94926665     0.87600
Mg243      Mg  0.51892206  0.41010288  0.97582698     1.58100
O244        O  0.53266775  0.48354848  0.92152454    -0.88100
O245        O  0.51474851  0.43473689  0.91326841    -0.75500
C246        C  0.58943851  0.48394471  0.01771055     0.92700
O247        O  0.48190415  0.45166202  0.98816684    -0.75300
O248        O  0.57841648  0.46687564  0.02391768    -0.82800
Mg249      Mg  0.47287033  0.44137598  0.95220094     1.58000
C250        C  0.58541256  0.52543631  0.93394397     0.92600
O251        O  0.46121802  0.43044679  0.91680246    -0.81000
H252        H  0.55105311  0.46985631  0.89725393    -0.06400
C253        C  0.53622384  0.50330291  0.98621028     0.87500
O254        O  0.55439691  0.41755834  0.96341108    -0.75600
O255        O  0.48722737  0.47208450  0.93995523    -0.88300
O256        O  0.56552979  0.52609735  0.92615834    -0.81100
C257        C  0.49663443  0.52597114  0.89773703     0.92700
C258        C  0.46068085  0.43895025  0.89723616     0.92600
Mg259      Mg  0.57538945  0.48169681  0.96327660     1.58000
O260        O  0.58773054  0.49173778  0.99798489    -0.81000
O261        O  0.56699348  0.47218273  0.92705473    -0.75300
O262        O  0.48989778  0.50576999  0.89837528    -0.81100
O263        O  0.45691616  0.40957663  0.96711550    -0.82800
O264        O  0.55936290  0.41699955  0.01742011    -0.81200
C265        C  0.55021398  0.47526565  0.91444523     0.87000
O266        O  0.56150334  0.45132903  0.97541530    -0.88300
O267        O  0.54400622  0.49825253  0.96774581    -0.88400
O268        O  0.53528662  0.48929510  0.00221317    -0.75500
Mg269      Mg  0.50255782  0.47074699  0.90773386     1.58000
O270        O  0.51373849  0.53233123  0.90872384    -0.82800
H271        H  0.51973482  0.40407212  0.92695170    -0.06600
O272        O  0.51656298  0.44096235  0.99367135    -0.88100
H273        H  0.49825858  0.45535364  0.01761189    -0.06400
H274        H  0.58420608  0.43305016  0.95908271    -0.06600
C275        C  0.49896710  0.44933434  0.00061917     0.87000
C276        C  0.51309836  0.42074839  0.92916347     0.87600
C277        C  0.56754594  0.43398735  0.96595470     0.87600
H278        H  0.52962978  0.51995916  0.98868360    -0.06500
O279        O  0.49465055  0.50627897  0.95108036    -0.75600
Mg280      Mg  0.54698804  0.45288027  0.00806750     1.58000
H281        H  0.46499608  0.49077015  0.95648566    -0.06600
C282        C  0.46463981  0.39788830  0.98319243     0.92600
O283        O  0.53397754  0.39279546  0.00519291    -0.82800
C284        C  0.55102322  0.39736670  0.01687344     0.92700
O285        O  0.47160326  0.45645926  0.89223425    -0.82800
Mg286      Mg  0.53020626  0.51472258  0.93875340     1.58200
O287        O  0.48512520  0.39870981  0.98857307    -0.81100
O288        O  0.59079898  0.51294477  0.95020435    -0.82800
C289        C  0.41164014  0.38220072  0.71263061     0.80200
N290        N  0.39438786  0.36777343  0.70941464    -0.78100
C291        C  0.38511341  0.35680218  0.72703037     0.82600
N292        N  0.39280972  0.36087919  0.74794688    -0.78100
C293        C  0.40974055  0.37546562  0.75152284     0.82700
N294        N  0.41912286  0.38598003  0.73371338    -0.79800
C295        C  0.60145801  0.20906411  0.06338570     0.80200
N296        N  0.61467039  0.20548524  0.08157219    -0.78100
C297        C  0.62481729  0.22297258  0.09195868     0.82600
N298        N  0.62125009  0.24404316  0.08437629    -0.78100
C299        C  0.60805150  0.24802240  0.06649230     0.82700
N300        N  0.59823979  0.23040962  0.05610322    -0.79800
C301        C  0.77152865  0.56479554  0.87533033     0.80200
N302        N  0.77554365  0.58356278  0.86308709    -0.78100
C303        C  0.75836372  0.59588825  0.85472508     0.82600
N304        N  0.73703583  0.58960060  0.85912956    -0.78100
C305        C  0.73274991  0.57096859  0.87134252     0.82700
N306        N  0.75005044  0.55870409  0.87935039    -0.79800
O307        O  0.95132837  0.49858640  0.02969767    -0.88400
C308        C  0.96277286  0.44619701  0.07095789     0.87600
Mg309      Mg  0.92400041  0.49907512  0.00712658     1.58100
O310        O  0.99843211  0.44756349  0.02416121    -0.88100
O311        O  0.98781780  0.49968725  0.02693108    -0.75500
C312        C  0.92042209  0.39739986  0.96215863     0.92700
O313        O  0.91569464  0.46618313  0.05325435    -0.75300
O314        O  0.90740694  0.41397125  0.96522097    -0.82800
Mg315      Mg  0.94369339  0.49000873  0.06381748     1.58000
C316        C  0.01014362  0.38968033  0.98769680     0.92600
O317        O  0.96993893  0.51448012  0.07858691    -0.81000
H318        H  0.02043260  0.46375789  0.00495157    -0.06400
C319        C  0.94435975  0.40696889  0.02001810     0.87500
O320        O  0.94600511  0.48655231  0.97838606    -0.75600
O321        O  0.96763354  0.46360892  0.06094048    -0.88300
O322        O  0.01266997  0.39705036  0.00758584    -0.81100
C323        C  0.02261587  0.42635618  0.07554501     0.92700
C324        C  0.99058285  0.51370967  0.08393803     0.92600
Mg325      Mg  0.96806322  0.42300574  0.97859106     1.58000
O326        O  0.94097776  0.39827994  0.96759221    -0.81000
O327        O  0.99694727  0.44666810  0.98754561    -0.75300
O328        O  0.01622624  0.44668240  0.07459559    -0.81100
O329        O  0.91631947  0.51651238  0.06716549    -0.82800
O330        O  0.89482300  0.46715710  0.96650015    -0.81200
C331        C  0.00604059  0.45289811  0.00568710     0.87000
O332        O  0.94476738  0.44990738  0.98001347    -0.88300
O333        O  0.96174515  0.41559341  0.01291975    -0.88400
O334        O  0.92516227  0.41437850  0.01469689    -0.75500
Mg335      Mg  0.00071574  0.47205054  0.05017377     1.58000
O336        O  0.01841362  0.41248255  0.05995203    -0.82800
H337        H  0.96714971  0.52189901  0.01175997    -0.06600
O338        O  0.91523124  0.46574154  0.01668311    -0.88100
H339        H  0.89284198  0.44915329  0.03504048    -0.06400
H340        H  0.96070069  0.46620970  0.95562214    -0.06600
C341        C  0.90714389  0.46015424  0.03483842     0.87000
C342        C  0.96856530  0.50753794  0.02266100     0.87600
C343        C  0.95060899  0.46735114  0.97053776     0.87600
H344        H  0.94553431  0.39306968  0.03152419    -0.06500
O345        O  0.96842424  0.42707623  0.06364531    -0.75600
Mg346      Mg  0.91163021  0.44155290  0.99088391     1.58000
H347        H  0.95288073  0.44724047  0.08601319    -0.06600
C348        C  0.90028827  0.52042802  0.05370291     0.92600
O349        O  0.89600933  0.50057797  0.98271255    -0.82800
C350        C  0.88914797  0.48777725  0.96730212     0.92700
O351        O  0.00337341  0.49831551  0.07679185    -0.82800
Mg352      Mg  0.99004846  0.41411348  0.03469131     1.58200
O353        O  0.90085171  0.51398031  0.03347234    -0.81100
O354        O  0.99337933  0.39531484  0.97593838    -0.82800
C355        C  0.70843994  0.56763535  0.09813969     0.80200
N356        N  0.72954832  0.56153770  0.09242694    -0.78100
C357        C  0.74715587  0.57515779  0.09674315     0.82600
N358        N  0.74350124  0.59523302  0.10673498    -0.78100
C359        C  0.72248448  0.60158019  0.11246311     0.82700
N360        N  0.70507972  0.58772254  0.10820372    -0.79800
C361        C  0.06011681  0.37507844  0.26846015     0.80200
N362        N  0.07665459  0.35962785  0.27138240    -0.78100
C363        C  0.08805845  0.35146114  0.25347274     0.82600
N364        N  0.08316930  0.35928148  0.23276653    -0.78100
C365        C  0.06709158  0.37491633  0.22951873     0.82700
N366        N  0.05558229  0.38268046  0.24747273    -0.79800
C367        C  0.87106398  0.20579857  0.91591193     0.80200
N368        N  0.87588495  0.22684370  0.92310981    -0.78100
C369        C  0.86846028  0.24511399  0.91178012     0.82600
N370        N  0.85600493  0.24207288  0.89321103    -0.78100
C371        C  0.85084186  0.22133287  0.88578387     0.82700
N372        N  0.85859565  0.20316618  0.89707425    -0.79800
O373        O  0.49205324  0.03594500  0.95438238    -0.88400
C374        C  0.43764399  0.07580020  0.95911054     0.87600
Mg375      Mg  0.49592759  0.01270844  0.92768104     1.58100
O376        O  0.43788216  0.03056942  0.99654267    -0.88100
O377        O  0.49031739  0.03491051  0.99090697    -0.75500
C378        C  0.39721141  0.96328717  0.91807871     0.92700
O379        O  0.46302335  0.05788329  0.91495488    -0.75300
O380        O  0.41369991  0.96771373  0.90537660    -0.82800
Mg381      Mg  0.48357737  0.06979373  0.94503610     1.58000
C382        C  0.38233485  0.99145401  0.00583150     0.92600
O383        O  0.50490874  0.08567351  0.97333401    -0.81000
H384        H  0.45311168  0.01325078  0.02071415    -0.06400
C385        C  0.40200986  0.02266231  0.93999452     0.87500
O386        O  0.48291718  0.98377572  0.94899831    -0.75600
O387        O  0.45495167  0.06691014  0.96613213    -0.88300
O388        O  0.38784477  0.01204015  0.00768137    -0.81100
C389        C  0.41257660  0.08151910  0.01683217     0.92700
C390        C  0.50227848  0.09187033  0.99358644     0.92600
Mg391      Mg  0.41859598  0.98274609  0.96646578     1.58000
O392        O  0.39692464  0.96910557  0.93849943    -0.81000
O393        O  0.43939517  0.99392183  0.99655114    -0.75300
O394        O  0.43326052  0.08086408  0.01205216    -0.81100
O395        O  0.51275389  0.07317941  0.92070744    -0.82800
O396        O  0.46776399  0.97108882  0.89625036    -0.81200
C397        C  0.44356285  0.01275004  0.00541558     0.87000
O398        O  0.44661430  0.98477615  0.94489645    -0.88300
O399        O  0.40958025  0.01640626  0.95818580    -0.88400
O400        O  0.41122656  0.01745916  0.92160648    -0.75500
Mg401      Mg  0.46080549  0.05750248  0.00022046     1.58000
O402        O  0.39948976  0.06541487  0.01215321    -0.82800
H403        H  0.51449611  0.01947950  0.97286998    -0.06600
O404        O  0.46323028  0.02121857  0.91573683    -0.88100
H405        H  0.44871645  0.03855874  0.89113464    -0.06400
H406        H  0.46199083  0.96058169  0.96208846    -0.06600
C407        C  0.45816920  0.03903461  0.90649631     0.87000
C408        C  0.49976185  0.02993605  0.97258655     0.87600
C409        C  0.46364722  0.97554370  0.95207495     0.87600
H410        H  0.38752571  0.03347124  0.93976795    -0.06500
O411        O  0.41843474  0.06782871  0.96334472    -0.75600
Mg412      Mg  0.44016878  0.99455823  0.91087324     1.58000
H413        H  0.43892542  0.09041642  0.94854297    -0.06600
C414        C  0.51780089  0.05957576  0.90513379     0.92600
O415        O  0.50074819  0.98765022  0.90012489    -0.82800
C416        C  0.48866930  0.97221345  0.89200031     0.92700
O417        O  0.48564860  0.08537132  0.00505515    -0.82800
Mg418      Mg  0.40484861  0.03916930  0.98518552     1.58200
O419        O  0.51156968  0.03925006  0.90564493    -0.81100
O420        O  0.38970047  0.97942179  0.98999246    -0.82800
C421        C  0.56329910  0.10010935  0.71262249     0.80200
N422        N  0.55741541  0.09547040  0.73408003    -0.78100
C423        C  0.56895114  0.10421601  0.75153549     0.82600
N424        N  0.58656658  0.11771780  0.74724711    -0.78100
C425        C  0.59272108  0.12275482  0.72603663     0.82700
N426        N  0.58107234  0.11379741  0.70868607    -0.79800
C427        C  0.37785540  0.27608686  0.06087305     0.80200
N428        N  0.36325756  0.27902846  0.07810363    -0.78100
C429        C  0.35160625  0.26131696  0.08633397     0.82600
N430        N  0.35473060  0.24082945  0.07730428    -0.78100
C431        C  0.36928889  0.23747400  0.06039395     0.82700
N432        N  0.38090394  0.25521190  0.05228325    -0.79800
C433        C  0.20538889  0.91825852  0.87435603     0.80200
N434        N  0.20222127  0.89848466  0.86333370    -0.78100
C435        C  0.22010576  0.88581811  0.85694367     0.82600
N436        N  0.24095524  0.89317312  0.86170519    -0.78100
C437        C  0.24439812  0.91257869  0.87266295     0.82700
N438        N  0.22656758  0.92501223  0.87895836    -0.79800
O439        O  0.53684825  0.52952288  0.48450488    -0.88400
C440        C  0.57312171  0.51695656  0.54035887     0.87600
Mg441      Mg  0.51508061  0.55800269  0.48238851     1.58100
O442        O  0.52597895  0.48211365  0.53507171    -0.88100
O443        O  0.53326152  0.49299501  0.48349490    -0.75500
C444        C  0.46199349  0.56075021  0.57998589     0.92700
O445        O  0.55886671  0.56445879  0.51852195    -0.75300
O446        O  0.46707882  0.57444715  0.56447888    -0.82800
Mg447      Mg  0.57060705  0.53579861  0.49580910     1.58000
C448        C  0.48437518  0.47157276  0.58942169     0.92600
O449        O  0.58728012  0.50839220  0.47290191    -0.81000
H450        H  0.50822996  0.46030857  0.51710301    -0.06400
C451        C  0.51962727  0.53582046  0.57521517     0.87500
O452        O  0.48457142  0.53707947  0.49216085    -0.75600
O453        O  0.56462992  0.51225902  0.52214680    -0.88300
O454        O  0.50486257  0.46822027  0.58425814    -0.81100
C455        C  0.57539761  0.45711010  0.56033631     0.92700
C456        C  0.59185480  0.48752314  0.47475811     0.92600
Mg457      Mg  0.47926502  0.51336222  0.55479581     1.58000
O458        O  0.46669215  0.54006260  0.57859062    -0.81000
O459        O  0.48956829  0.48441117  0.53194215    -0.75300
O460        O  0.57519938  0.46376523  0.54015200    -0.81100
O461        O  0.57690716  0.56291693  0.46945859    -0.82800
O462        O  0.47325878  0.58794844  0.51172947    -0.81200
C463        C  0.50805502  0.47479039  0.52788867     0.87000
O464        O  0.48386965  0.53716752  0.52873154    -0.88300
O465        O  0.51284632  0.51869477  0.56583210    -0.88400
O466        O  0.51576249  0.55526668  0.56748629    -0.75500
Mg467      Mg  0.55372484  0.47941063  0.51296372     1.58000
O468        O  0.55907089  0.46110274  0.57344973    -0.82800
H469        H  0.52029572  0.51389936  0.46013148    -0.06600
O470        O  0.52236618  0.56604849  0.51648557    -0.88100
H471        H  0.54017351  0.58794194  0.53427101    -0.06400
H472        H  0.45986834  0.52291108  0.51048843    -0.06600
C473        C  0.54031718  0.57358412  0.52331918     0.87000
C474        C  0.53003321  0.51234056  0.47524592     0.87600
C475        C  0.47528224  0.53228356  0.51061165     0.87600
H476        H  0.52973338  0.53416150  0.59007518    -0.06500
O477        O  0.56416435  0.51123993  0.55872577    -0.75600
Mg478      Mg  0.49482858  0.56994129  0.53875995     1.58000
H479        H  0.58829731  0.52670697  0.54067427    -0.06600
C480        C  0.56429974  0.57945034  0.46456642     0.92600
O481        O  0.49123373  0.58747879  0.47922086    -0.82800
C482        C  0.47519320  0.59430452  0.49142134     0.92700
O483        O  0.58252985  0.47545191  0.48950758    -0.82800
Mg484      Mg  0.53394722  0.49001861  0.56934593     1.58200
O485        O  0.54367410  0.57977475  0.46974899    -0.81100
O486        O  0.47348671  0.48813071  0.58175700    -0.82800
C487        C  0.59935269  0.77212039  0.41558824     0.80200
N488        N  0.59708427  0.75081093  0.42335344    -0.78100
C489        C  0.60604862  0.73317193  0.41220698     0.82600
N490        N  0.61742712  0.73711624  0.39306291    -0.78100
C491        C  0.61992781  0.75811919  0.38480014     0.82700
N492        N  0.61067959  0.77566633  0.39607661    -0.79800
C493        C  0.41968187  0.60812535  0.77333661     0.80200
N494        N  0.42689094  0.60236178  0.75256601    -0.78100
C495        C  0.41672863  0.61058791  0.73403998     0.82600
N496        N  0.39916196  0.62463047  0.73655163    -0.78100
C497        C  0.39165319  0.63076008  0.75697889     0.82700
N498        N  0.40199299  0.62236941  0.77545817    -0.79800
C499        C  0.77033511  0.41925407  0.60060553     0.80200
N500        N  0.77487961  0.40112231  0.61372863    -0.78100
C501        C  0.75798404  0.38865636  0.62237199     0.82600
N502        N  0.73656220  0.39406749  0.61753174    -0.78100
C503        C  0.73158140  0.41171260  0.60422418     0.82700
N504        N  0.74861420  0.42426988  0.59587042    -0.79800
O505        O  0.44692370  0.97863331  0.56093819    -0.88400
C506        C  0.44458332  0.99965572  0.49647835     0.87600
Mg507      Mg  0.47606623  0.96468566  0.57534417     1.58100
O508        O  0.41744291  0.94849561  0.50652271    -0.88100
O509        O  0.41222859  0.96895088  0.55506463    -0.75500
C510        C  0.51363799  0.89182227  0.49967238     0.92700
O511        O  0.48615283  0.00098118  0.53262005    -0.75300
O512        O  0.52141914  0.90358042  0.51563495    -0.82800
Mg513      Mg  0.45070176  0.01019608  0.54459931     1.58000
C514        C  0.42726589  0.89378021  0.46543701     0.92600
O515        O  0.41576063  0.02182587  0.55729008    -0.81000
H516        H  0.39467793  0.93078538  0.52332418    -0.06400
C517        C  0.48044638  0.94496206  0.48226374     0.87500
O518        O  0.46337379  0.92917865  0.56917457    -0.75600
O519        O  0.43657644  0.99476976  0.51491148    -0.88300
O520        O  0.41932650  0.91364674  0.46401305    -0.81100
C521        C  0.38992250  0.98223796  0.46460338     0.92700
C522        C  0.39587157  0.02219834  0.54959388     0.92600
Mg523      Mg  0.45951245  0.90601834  0.50677697     1.58000
O524        O  0.49318139  0.89318755  0.49407094    -0.81000
O525        O  0.42427920  0.91478960  0.51912924    -0.75300
O526        O  0.39203461  0.98986443  0.48434425    -0.81100
O527        O  0.46726439  0.02680767  0.57553028    -0.82800
O528        O  0.51793113  0.92400960  0.56667993    -0.81200
C529        C  0.41129452  0.93136591  0.51631363     0.87000
O530        O  0.47396037  0.92098282  0.53523733    -0.88300
O531        O  0.46255511  0.93676788  0.48864241    -0.88400
O532        O  0.49734266  0.94658798  0.49507515    -0.75500
Mg533      Mg  0.40449676  0.97931224  0.51895677     1.58000
O534        O  0.40102426  0.96525523  0.45803079    -0.82800
H535        H  0.42783456  0.96542014  0.58492349    -0.06600
O536        O  0.49255038  0.96645202  0.54360134    -0.88100
H537        H  0.51551719  0.98472218  0.52765190    -0.06400
H538        H  0.45865717  0.89879937  0.55495070    -0.06600
C539        C  0.49887016  0.98399733  0.53457601     0.87000
C540        C  0.42901926  0.97104787  0.56780995     0.87600
C541        C  0.46539605  0.91546953  0.55317052     0.87600
H542        H  0.48159547  0.95140981  0.46543464    -0.06500
O543        O  0.44496416  0.98577509  0.48035032    -0.75600
Mg544      Mg  0.50626342  0.93556571  0.53100469     1.58000
H545        H  0.45177428  0.01606177  0.49410178    -0.06600
C546        C  0.48329816  0.01923239  0.58741606     0.92600
O547        O  0.50602417  0.94949300  0.59112950    -0.82800
C548        C  0.51784353  0.93256490  0.58625675     0.92700
O549        O  0.39015944  0.01113279  0.53245005    -0.82800
Mg550      Mg  0.43230528  0.94970982  0.47393184     1.58200
O551        O  0.48900258  0.99874861  0.58637223    -0.81100
O552        O  0.44380605  0.88933612  0.47787914    -0.82800
C553        C  0.37270487  0.70722557  0.41788423     0.80200
N554        N  0.37659115  0.72875640  0.42408433    -0.78100
C555        C  0.36802087  0.74617436  0.41237193     0.82600
N556        N  0.35520208  0.74193919  0.39430339    -0.78100
C557        C  0.35077796  0.72066119  0.38771937     0.82700
N558        N  0.35975810  0.70325202  0.39951724    -0.79800
C559        C  0.20872750  0.05885853  0.60649224     0.80200
N560        N  0.20483580  0.07695340  0.61978073    -0.78100
C561        C  0.22211196  0.08769770  0.62995254     0.82600
N562        N  0.24329966  0.08054372  0.62628324    -0.78100
C563        C  0.24754316  0.06272038  0.61302369     0.82700
N564        N  0.23014298  0.05203467  0.60321941    -0.79800
C565        C  0.56333314  0.87792831  0.77438853     0.80200
N566        N  0.55662714  0.88286001  0.75325258    -0.78100
C567        C  0.56769352  0.87487811  0.73518872     0.82600
N568        N  0.58583143  0.86170289  0.73847845    -0.78100
C569        C  0.59303716  0.85648434  0.75935488     0.82700
N570        N  0.58174487  0.86475629  0.77734022    -0.79800
C571        C  0.21146210  0.25454092  0.74272178     0.80200
N572        N  0.22964048  0.26785352  0.74042004    -0.78100
C573        C  0.24430250  0.26490148  0.72337171     0.82600
N574        N  0.24058150  0.24816280  0.70844182    -0.78100
C575        C  0.22241018  0.23465792  0.71040688     0.82700
N576        N  0.20808357  0.23801509  0.72764183    -0.79800
C577        C  0.23240800  0.13647953  0.66897449    -0.27700
C578        C  0.21524593  0.15113742  0.66287513     0.01900
C579        C  0.19891554  0.14404365  0.64759824     0.30000
C580        C  0.20061628  0.12281971  0.63773254    -0.19500
C581        C  0.21851572  0.10848414  0.64298057    -0.28900
C582        C  0.23416803  0.11533022  0.65922228     0.44100
C583        C  0.21512047  0.17385457  0.67252947     0.05200
O584        O  0.18205178  0.15821933  0.64124689    -0.57400
H585        H  0.18846744  0.11800546  0.62524980     0.18200
O586        O  0.25107948  0.10133949  0.66592195    -0.64100
H587        H  0.24473209  0.14160785  0.68117795     0.16600
C588        C  0.19889485  0.18019665  0.68817108     0.28900
C589        C  0.20086763  0.20059720  0.69937998    -0.25000
C590        C  0.21923313  0.21486611  0.69563247    -0.24300
C591        C  0.23498426  0.20879066  0.67912602     0.40300
C592        C  0.23280643  0.18843604  0.66778381    -0.26700
O593        O  0.18162084  0.16610332  0.69340230    -0.58600
H594        H  0.18835310  0.20472018  0.71174448     0.16000
O595        O  0.25280750  0.22228060  0.67417807    -0.60000
H596        H  0.24539675  0.18366007  0.65569810     0.14400
H597        H  0.26509936  0.10881428  0.66125299     0.46300
H598        H  0.18731149  0.15659373  0.70574010     0.41700
H599        H  0.26545290  0.21616166  0.68298530     0.45100
H600        H  0.16881635  0.15334561  0.64990197     0.36600
C601        C  0.54698805  0.92676950  0.64164003    -0.27700
C602        C  0.54558798  0.90367687  0.64533812     0.01900
C603        C  0.53794900  0.88968882  0.62804560     0.30000
C604        C  0.53060417  0.89908526  0.60781134    -0.19500
C605        C  0.53069762  0.92237589  0.60471269    -0.28900
C606        C  0.53972170  0.93613138  0.62156330     0.44100
C607        C  0.55048503  0.89492621  0.66796198     0.05200
O608        O  0.53574599  0.86711932  0.63150978    -0.57400
H609        H  0.52338317  0.88830742  0.59521907     0.18200
O610        O  0.54037887  0.95893917  0.61905438    -0.64100
H611        H  0.55303499  0.93768720  0.65473179     0.16600
C612        C  0.56813045  0.87993049  0.67185572     0.28900
C613        C  0.57315668  0.87316176  0.69369201    -0.25000
C614        C  0.56087004  0.88127032  0.71207646    -0.24300
C615        C  0.54280028  0.89597632  0.70792222     0.40300
C616        C  0.53791588  0.90274370  0.68609262    -0.26700
O617        O  0.58095750  0.87227231  0.65451031    -0.58600
H618        H  0.58706723  0.86184365  0.69618571     0.16000
O619        O  0.53010233  0.90441409  0.72499799    -0.60000
H620        H  0.52427209  0.91434051  0.68329275     0.14400
H621        H  0.55434738  0.96197464  0.61071613     0.46300
H622        H  0.59313810  0.88337140  0.65290190     0.41700
H623        H  0.51732682  0.89398824  0.72645146     0.45100
H624        H  0.54825396  0.86016466  0.62320017     0.36600
C625        C  0.31110362  0.06316956  0.60900121    -0.27700
C626        C  0.31450022  0.04916492  0.59060965     0.01900
C627        C  0.29621683  0.03775212  0.58131513     0.30000
C628        C  0.27469577  0.04150276  0.58955191    -0.19500
C629        C  0.27090878  0.05668631  0.60704992    -0.28900
C630        C  0.28957697  0.06690850  0.61732622     0.44100
C631        C  0.33711661  0.04637132  0.58111585     0.05200
O632        O  0.29937683  0.02247768  0.56450715    -0.57400
H633        H  0.26090023  0.03288886  0.58168025     0.18200
O634        O  0.28708592  0.08095459  0.63519775    -0.64100
H635        H  0.32514936  0.07161715  0.61663093     0.16600
C636        C  0.34125162  0.05144926  0.55855264     0.28900
C637        C  0.36157868  0.04530487  0.54883259    -0.25000
C638        C  0.37802022  0.03429379  0.56141385    -0.24300
C639        C  0.37467503  0.03110649  0.58446565     0.40300
C640        C  0.35423903  0.03709157  0.59417278    -0.26700
O641        O  0.32537577  0.06220801  0.54593286    -0.58600
H642        H  0.36405250  0.04810485  0.53112579     0.16000
O643        O  0.39023143  0.01997267  0.59708965    -0.60000
H644        H  0.35127627  0.03326550  0.61160469     0.14400
H645        H  0.28791369  0.07112290  0.64852496     0.46300
H646        H  0.32108669  0.05151624  0.53403082     0.41700
H647        H  0.39930895  0.03185835  0.60413481     0.45100
H648        H  0.29153086  0.02869109  0.55130253     0.36600
C649        C  0.38139767  0.80842180  0.40945228    -0.27700
C650        C  0.38708616  0.81283987  0.43169042     0.01900
C651        C  0.38499030  0.79573110  0.44772850     0.30000
C652        C  0.37819060  0.77430672  0.44128138    -0.19500
C653        C  0.37332939  0.76951320  0.41887304    -0.28900
C654        C  0.37449440  0.78697402  0.40296196     0.44100
C655        C  0.39762903  0.83439790  0.43772679     0.05200
O656        O  0.38957380  0.79989421  0.46977984    -0.57400
H657        H  0.37700980  0.76131967  0.45385882     0.18200
O658        O  0.37047684  0.78293710  0.38079563    -0.64100
H659        H  0.38322034  0.82138132  0.39692622     0.16600
C660        C  0.41991594  0.83459315  0.44490762     0.28900
C661        C  0.42945759  0.85434382  0.45261552    -0.25000
C662        C  0.41719660  0.87447293  0.45338446    -0.24300
C663        C  0.39529593  0.87464398  0.44465582     0.40300
C664        C  0.38563595  0.85461631  0.43692482    -0.26700
O665        O  0.43237869  0.81531542  0.44507940    -0.58600
H666        H  0.44649349  0.85363612  0.45864565     0.16000
O667        O  0.38277717  0.89385299  0.44474200    -0.60000
H668        H  0.36854056  0.85471149  0.43104175     0.14400
H669        H  0.35499667  0.78821287  0.37815491     0.46300
H670        H  0.43879534  0.81417829  0.42987125     0.41700
H671        H  0.38490024  0.90049024  0.42971774     0.45100
H672        H  0.40390753  0.79215104  0.47287383     0.36600
C673        C  0.57263103  0.80692218  0.46209032    -0.27700
C674        C  0.56700449  0.82667068  0.45081758     0.01900
C675        C  0.57302590  0.82893295  0.42819078     0.30000
C676        C  0.58408665  0.81138593  0.41709896    -0.19500
C677        C  0.58897408  0.79114198  0.42811495    -0.28900
C678        C  0.58328142  0.78921687  0.45099047     0.44100
C679        C  0.55398461  0.84425270  0.46270428     0.05200
O680        O  0.56862921  0.84846463  0.41696015    -0.57400
H681        H  0.58838003  0.81349793  0.39966187     0.18200
O682        O  0.58850336  0.77031578  0.46289798    -0.64100
H683        H  0.56823740  0.80497168  0.47953301     0.16600
C684        C  0.53230987  0.84993480  0.45566904     0.28900
C685        C  0.51971316  0.86557896  0.46767238    -0.25000
C686        C  0.52817433  0.87584220  0.48708448    -0.24300
C687        C  0.54999683  0.87016711  0.49407717     0.40300
C688        C  0.56258364  0.85437143  0.48203538    -0.26700
O689        O  0.52300325  0.83982403  0.43736928    -0.58600
H690        H  0.50305123  0.86945115  0.46178712     0.16000
O691        O  0.55897237  0.87933563  0.51301235    -0.60000
H692        H  0.57912931  0.84993467  0.48785835     0.14400
H693        H  0.57398239  0.76308027  0.46623668     0.46300
H694        H  0.51546245  0.82628541  0.44324956     0.41700
H695        H  0.56758891  0.89248421  0.50778194     0.45100
H696        H  0.55635610  0.84486136  0.40646899     0.36600
C697        C  0.43544411  0.56138076  0.63743900    -0.27700
C698        C  0.43970909  0.58338339  0.64413917     0.01900
C699        C  0.44933321  0.59849587  0.62893424     0.30000
C700        C  0.45534577  0.59127192  0.60753531    -0.19500
C701        C  0.45183749  0.56899637  0.60097522    -0.28900
C702        C  0.44121189  0.55417035  0.61600580     0.44100
C703        C  0.43412245  0.59039240  0.66709613     0.05200
O704        O  0.45420721  0.61995372  0.63536596    -0.57400
H705        H  0.46373175  0.60288017  0.59646719     0.18200
O706        O  0.43690421  0.53241903  0.61018144    -0.64100
H707        H  0.42773319  0.54971648  0.64894542     0.16600
C708        C  0.41756185  0.60654069  0.67088978     0.28900
C709        C  0.41251589  0.61314576  0.69264889    -0.25000
C710        C  0.42358784  0.60366431  0.71115380    -0.24300
C711        C  0.44028300  0.58737073  0.70721513     0.40300
C712        C  0.44527909  0.58077499  0.68532020    -0.26700
O713        O  0.40597049  0.61576262  0.65340158    -0.58600
H714        H  0.39960279  0.62561664  0.69491792     0.16000
O715        O  0.45153292  0.57740560  0.72450476    -0.60000
H716        H  0.45802239  0.56820103  0.68252836     0.14400
H717        H  0.42215838  0.53283579  0.60264680     0.46300
H718        H  0.39291368  0.60583392  0.65118390     0.41700
H719        H  0.46508760  0.58663165  0.72670848     0.45100
H720        H  0.44264885  0.62944271  0.62823934     0.36600
C721        C  0.44152369  0.62914913  0.44969200    -0.27700
C722        C  0.42572567  0.63955585  0.46349236     0.01900
C723        C  0.42596858  0.63474098  0.48654599     0.30000
C724        C  0.44204737  0.62000603  0.49539803    -0.19500
C725        C  0.45823931  0.60990486  0.48163391    -0.28900
C726        C  0.45767371  0.61462194  0.45847643     0.44100
C727        C  0.40987436  0.65605174  0.45349480     0.05200
O728        O  0.40997384  0.64362349  0.50036111    -0.57400
H729        H  0.44180224  0.61654094  0.51314752     0.18200
O730        O  0.47250115  0.60478301  0.44405894    -0.64100
H731        H  0.44162153  0.63263129  0.43193695     0.16600
C732        C  0.40899275  0.67823832  0.46125486     0.28900
C733        C  0.39597525  0.69417731  0.45011041    -0.25000
C734        C  0.38387409  0.68877025  0.43066239    -0.24300
C735        C  0.38411214  0.66628742  0.42335929     0.40300
C736        C  0.39711370  0.65025695  0.43466187    -0.26700
O737        O  0.42172124  0.68489977  0.47906264    -0.58600
H738        H  0.39611440  0.71114367  0.45641605     0.16000
O739        O  0.37260950  0.65989233  0.40466155    -0.60000
H740        H  0.39762202  0.63327640  0.42838283     0.14400
H741        H  0.48436336  0.61608364  0.44166954     0.46300
H742        H  0.43636486  0.68911334  0.47260540     0.41700
H743        H  0.35799921  0.65445628  0.41022853     0.45100
H744        H  0.41809718  0.65350301  0.51087058     0.36600
C745        C  0.58824143  0.68211259  0.44637868    -0.27700
C746        C  0.59513086  0.66460837  0.43248716     0.01900
C747        C  0.60646993  0.66950454  0.41260997     0.30000
C748        C  0.61029820  0.69180238  0.40652563    -0.19500
C749        C  0.60288117  0.70964700  0.42006057    -0.28900
C750        C  0.59198653  0.70445393  0.44036995     0.44100
C751        C  0.58879764  0.64145330  0.43820044     0.05200
O752        O  0.61307105  0.65263249  0.39858965    -0.57400
H753        H  0.61871536  0.69503797  0.39085750     0.18200
O754        O  0.58488194  0.72094811  0.45454859    -0.64100
H755        H  0.57947332  0.67842666  0.46177130     0.16600
C756        C  0.60305118  0.62747607  0.45061380     0.28900
C757        C  0.59544270  0.60655487  0.45805223    -0.25000
C758        C  0.57358997  0.59944817  0.45329244    -0.24300
C759        C  0.55983752  0.61309302  0.43979284     0.40300
C760        C  0.56752062  0.63387210  0.43233739    -0.26700
O761        O  0.62394924  0.63463539  0.45654866    -0.58600
H762        H  0.60622356  0.59642556  0.46850298     0.16000
O763        O  0.53880898  0.60626966  0.43382947    -0.60000
H764        H  0.55655735  0.64443313  0.42250732     0.14400
H765        H  0.56873604  0.72279910  0.45134970     0.46300
H766        H  0.63393771  0.62928806  0.44447933     0.41700
H767        H  0.52849687  0.61471420  0.44365980     0.45100
H768        H  0.62836411  0.64861730  0.40350439     0.36600
C769        C  0.66773820  0.40928776  0.60147939    -0.27700
C770        C  0.66295778  0.42708076  0.58706676     0.01900
C771        C  0.68065210  0.43991502  0.57843034     0.30000
C772        C  0.70277010  0.43488905  0.58428838    -0.19500
C773        C  0.70779107  0.41689548  0.59861868    -0.28900
C774        C  0.68982317  0.40404753  0.60722190     0.44100
C775        C  0.63948030  0.43199689  0.58085894     0.05200
O776        O  0.67639440  0.45787912  0.56479693    -0.57400
H777        H  0.71600027  0.44515098  0.57746710     0.18200
O778        O  0.69351101  0.38602935  0.62092910    -0.64100
H779        H  0.65426168  0.39919983  0.60811210     0.16600
C780        C  0.63237918  0.42994893  0.55860498     0.28900
C781        C  0.61091088  0.43680245  0.55250530    -0.25000
C782        C  0.59596744  0.44565155  0.56837177    -0.24300
C783        C  0.60257863  0.44615647  0.59099634     0.40300
C784        C  0.62422429  0.43938408  0.59706288    -0.26700
O785        O  0.64656280  0.42190843  0.54252236    -0.58600
H786        H  0.60623238  0.43590125  0.53505951     0.16000
O787        O  0.58873847  0.45479521  0.60705205    -0.60000
H788        H  0.62942362  0.44077560  0.61432493     0.14400
H789        H  0.69059328  0.39158270  0.63624644     0.46300
H790        H  0.64587814  0.40539679  0.54395963     0.41700
H791        H  0.58046835  0.44175957  0.61305403     0.45100
H792        H  0.68037416  0.45282592  0.54954092     0.36600
C793        C  0.52841246  0.05946607  0.67821870    -0.27700
C794        C  0.52829438  0.06976268  0.65715647     0.01900
C795        C  0.53907490  0.09052031  0.65456855     0.30000
C796        C  0.55031294  0.10029545  0.67269893    -0.19500
C797        C  0.55077147  0.08979837  0.69374889    -0.28900
C798        C  0.53938270  0.06926157  0.69637917     0.44100
C799        C  0.51775317  0.05798134  0.63796131     0.05200
O800        O  0.53903240  0.10120824  0.63430605    -0.57400
H801        H  0.55868676  0.11615649  0.67025662     0.18200
O802        O  0.53915291  0.05829897  0.71650697    -0.64100
H803        H  0.52008694  0.04355361  0.68054583     0.16600
C804        C  0.52518515  0.03654227  0.63178428     0.28900
C805        C  0.51423170  0.02469654  0.61492990    -0.25000
C806        C  0.49553809  0.03369808  0.60374110    -0.24300
C807        C  0.48848428  0.05552628  0.60951508     0.40300
C808        C  0.49967448  0.06751504  0.62637953    -0.26700
O809        O  0.54300598  0.02680101  0.64242150    -0.58600
H810        H  0.52030819  0.00810508  0.61091964     0.16000
O811        O  0.47045406  0.06517164  0.59919570    -0.60000
H812        H  0.49374731  0.08401735  0.63093354     0.14400
H813        H  0.55269096  0.04874580  0.71645565     0.46300
H814        H  0.55637955  0.03218146  0.63425143     0.41700
H815        H  0.45748347  0.06143634  0.60878450     0.45100
H816        H  0.55295461  0.09630349  0.62681145     0.36600
C817        C  0.34224757  0.93240844  0.91537320    -0.27700
C818        C  0.33532330  0.93709283  0.89352134     0.01900
C819        C  0.34998567  0.94832870  0.87894383     0.30000
C820        C  0.37084841  0.95559320  0.88673155    -0.19500
C821        C  0.37720836  0.95201245  0.90903258    -0.28900
C822        C  0.36282878  0.93991294  0.92324216     0.44100
C823        C  0.31208908  0.93164462  0.88709991     0.05200
O824        O  0.34332153  0.95394874  0.85775141    -0.57400
H825        H  0.38147304  0.96518290  0.87566035     0.18200
O826        O  0.36862697  0.93551017  0.94496750    -0.64100
H827        H  0.33126634  0.92350315  0.92667543     0.16600
C828        C  0.30724294  0.91800049  0.86863460     0.28900
C829        C  0.28509317  0.91210914  0.86407920    -0.25000
C830        C  0.26748660  0.91977667  0.87762098    -0.24300
C831        C  0.27242032  0.93347883  0.89608109     0.40300
C832        C  0.29452340  0.93937558  0.90058587    -0.26700
O833        O  0.32410679  0.90929220  0.85579132    -0.58600
H834        H  0.28173550  0.90137185  0.84992148     0.16000
O835        O  0.25592191  0.94067598  0.91023830    -0.60000
H836        H  0.29802688  0.94980266  0.91494373     0.14400
H837        H  0.36013699  0.94649795  0.95403627     0.46300
H838        H  0.32222870  0.91612730  0.84080304     0.41700
H839        H  0.25510388  0.92913940  0.92213592     0.45100
H840        H  0.35306312  0.94519226  0.84761199     0.36600
C841        C  0.53156465  0.94141471  0.85617302    -0.27700
C842        C  0.51864188  0.92440359  0.84676574     0.01900
C843        C  0.49605300  0.92247368  0.85289179     0.30000
C844        C  0.48660221  0.93772224  0.86802593    -0.19500
C845        C  0.49932065  0.95535993  0.87697977    -0.28900
C846        C  0.52214968  0.95691946  0.87091896     0.44100
C847        C  0.52848116  0.91050166  0.82879915     0.05200
O848        O  0.48315298  0.90564765  0.84425317    -0.57400
H849        H  0.46915792  0.93593003  0.87241248     0.18200
O850        O  0.53548171  0.97369962  0.87898028    -0.64100
H851        H  0.54890860  0.94322102  0.85136457     0.16600
C852        C  0.52229968  0.91425483  0.80651171     0.28900
C853        C  0.53331738  0.90302764  0.78926814    -0.25000
C854        C  0.55098014  0.88801570  0.79365053    -0.24300
C855        C  0.55671888  0.88380315  0.81619591     0.40300
C856        C  0.54564135  0.89519360  0.83349672    -0.26700
O857        O  0.50601930  0.92957022  0.80133186    -0.58600
H858        H  0.52829493  0.90671391  0.77230459     0.16000
O859        O  0.57347298  0.86912867  0.82160345    -0.60000
H860        H  0.55068663  0.89233085  0.85063141     0.14400
H861        H  0.53474111  0.98574487  0.86758658     0.46300
H862        H  0.51386878  0.94412797  0.80023298     0.41700
H863        H  0.56604579  0.85439008  0.82314950     0.45100
H864        H  0.47434047  0.91272246  0.83214161     0.36600
C865        C  0.53850251  0.09593391  0.85744198    -0.27700
C866        C  0.54561422  0.07951889  0.84228186     0.01900
C867        C  0.54648345  0.05705441  0.84915806     0.30000
C868        C  0.53888680  0.05109619  0.87040097    -0.19500
C869        C  0.53012223  0.06725110  0.88507233    -0.28900
C870        C  0.53083349  0.08998626  0.87873727     0.44100
C871        C  0.55138865  0.08592923  0.81912218     0.05200
O872        O  0.55489885  0.04087413  0.83524271    -0.57400
H873        H  0.53909952  0.03356900  0.87503574     0.18200
O874        O  0.52265162  0.10636912  0.89249866    -0.64100
H875        H  0.53802245  0.11334285  0.85240563     0.16600
C876        C  0.53989783  0.07675237  0.80080906     0.28900
C877        C  0.54573043  0.08288719  0.77903449    -0.25000
C878        C  0.56280054  0.09851727  0.77499184    -0.24300
C879        C  0.57380421  0.10819449  0.79356476     0.40300
C880        C  0.56810849  0.10177666  0.81530335    -0.26700
O881        O  0.52274866  0.06192314  0.80402062    -0.58600
H882        H  0.53676187  0.07532060  0.76529690     0.16000
O883        O  0.59030993  0.12380058  0.79083632    -0.60000
H884        H  0.57689549  0.10915349  0.82927910     0.14400
H885        H  0.53586104  0.11222857  0.90054456     0.46300
H886        H  0.50913561  0.07129044  0.80528488     0.41700
H887        H  0.58285478  0.13845880  0.79306632     0.45100
H888        H  0.54202958  0.03126036  0.83125040     0.36600
C889        C  0.39491206  0.18649142  0.03210215    -0.27700
C890        C  0.38230434  0.16918662  0.04164975     0.01900
C891        C  0.36449011  0.17446150  0.05589236     0.30000
C892        C  0.36001746  0.19679709  0.06109584    -0.19500
C893        C  0.37311485  0.21429066  0.05226284    -0.28900
C894        C  0.39034754  0.20890090  0.03710262     0.44100
C895        C  0.38880585  0.14571864  0.03754011     0.05200
O896        O  0.35237982  0.15783498  0.06602412    -0.57400
H897        H  0.34656498  0.20026402  0.07266711     0.18200
O898        O  0.40348382  0.22518863  0.02779030    -0.64100
H899        H  0.40861634  0.18255251  0.02096593     0.16600
C900        C  0.37425717  0.13060023  0.02698164     0.28900
C901        C  0.38163371  0.10898497  0.02179485    -0.25000
C902        C  0.40360179  0.10231824  0.02669710    -0.24300
C903        C  0.41770148  0.11716806  0.03834854     0.40300
C904        C  0.41028421  0.13867465  0.04355821    -0.26700
O905        O  0.35320917  0.13711650  0.02071920    -0.58600
H906        H  0.37058269  0.09792836  0.01271542     0.16000
O907        O  0.43905485  0.11113832  0.04405420    -0.60000
H908        H  0.42150670  0.15009105  0.05197480     0.14400
H909        H  0.39637952  0.22873740  0.01326212     0.46300
H910        H  0.35503986  0.14405021  0.00578412     0.41700
H911        H  0.43757959  0.10289765  0.05835912     0.45100
H912        H  0.33758065  0.15809459  0.05864420     0.36600
C913        C  0.88103401  0.35076071  0.94404569    -0.27700
C914        C  0.89627692  0.33365394  0.93912054     0.01900
C915        C  0.91927052  0.33802128  0.94030126     0.30000
C916        C  0.92678618  0.35908709  0.94700035    -0.19500
C917        C  0.91164724  0.37614259  0.95280253    -0.28900
C918        C  0.88850623  0.37182282  0.95104351     0.44100
C919        C  0.88813397  0.31121293  0.93283500     0.05200
O920        O  0.93449772  0.32192408  0.93434623    -0.57400
H921        H  0.94461740  0.36190790  0.94793424     0.18200
O922        O  0.87301113  0.38781328  0.95650987    -0.64100
H923        H  0.86326313  0.34757428  0.94302858     0.16600
C924        C  0.89326539  0.29235215  0.94593264     0.28900
C925        C  0.88658457  0.27105934  0.93902282    -0.25000
C926        C  0.87450585  0.26811353  0.91911248    -0.24300
C927        C  0.86884453  0.28730503  0.90634031     0.40300
C928        C  0.87555689  0.30856731  0.91335949    -0.26700
O929        O  0.90489457  0.29456004  0.96551795    -0.58600
H930        H  0.89099946  0.25682213  0.94932115     0.16000
O931        O  0.85686978  0.28564244  0.88690815    -0.60000
H932        H  0.87137743  0.32302507  0.90324662     0.14400
H933        H  0.86926425  0.38494641  0.97238240     0.46300
H934        H  0.89349075  0.29829066  0.97692698     0.41700
H935        H  0.86819884  0.28510059  0.87483762     0.45100
H936        H  0.94131264  0.31677235  0.94854288     0.36600
C937        C  0.79648456  0.54768248  0.06762760    -0.27700
C938        C  0.81432009  0.55427710  0.08130190     0.01900
C939        C  0.80998821  0.56786444  0.09997660     0.30000
C940        C  0.78809124  0.57478437  0.10462130    -0.19500
C941        C  0.77017897  0.56798321  0.09110199    -0.28900
C942        C  0.77458498  0.55433335  0.07241277     0.44100
C943        C  0.83736316  0.54733744  0.07536283     0.05200
O944        O  0.82717466  0.57525971  0.11316436    -0.57400
H945        H  0.78510709  0.58532223  0.11901582     0.18200
O946        O  0.75771220  0.54769597  0.05845650    -0.64100
H947        H  0.79958285  0.53730343  0.05313488     0.16600
C948        C  0.85049274  0.53435239  0.08998373     0.28900
C949        C  0.87160643  0.52675808  0.08318396    -0.25000
C950        C  0.87977887  0.53165909  0.06175792    -0.24300
C951        C  0.86677125  0.54503657  0.04733432     0.40300
C952        C  0.84585413  0.55286979  0.05424649    -0.26700
O953        O  0.84208841  0.52755458  0.11018807    -0.58600
H954        H  0.88108076  0.51601215  0.09427428     0.16000
O955        O  0.87442507  0.55066026  0.02648162    -0.60000
H956        H  0.83600325  0.56297772  0.04288682     0.14400
H957        H  0.75589044  0.56013084  0.04761232     0.46300
H958        H  0.85152015  0.53491784  0.12161809     0.41700
H959        H  0.86654952  0.54051131  0.01604630     0.45100
H960        H  0.82512728  0.56768806  0.12776173     0.36600
C961        C  0.05461106  0.42480742  0.13034810    -0.27700
C962        C  0.04760182  0.40414206  0.13905810     0.01900
C963        C  0.03379014  0.39032977  0.12601311     0.30000
C964        C  0.02693437  0.39732680  0.10478997    -0.19500
C965        C  0.03337415  0.41821112  0.09626571    -0.28900
C966        C  0.04762495  0.43187621  0.10909844     0.44100
C967        C  0.05384271  0.39740180  0.16210523     0.05200
O968        O  0.02552702  0.37072601  0.13459402    -0.57400
H969        H  0.01552211  0.38685119  0.09546598     0.18200
O970        O  0.05448543  0.45229269  0.10122610    -0.64100
H971        H  0.06530110  0.43557927  0.14017440     0.16600
C972        C  0.06542115  0.37731405  0.16615609     0.28900
C973        C  0.06955578  0.37032306  0.18807522    -0.25000
C974        C  0.06239188  0.38312613  0.20646276    -0.24300
C975        C  0.05125346  0.40357265  0.20231877     0.40300
C976        C  0.04723620  0.41060279  0.18029651    -0.26700
O977        O  0.07266315  0.36428082  0.14877069    -0.58600
H978        H  0.07824800  0.35462665  0.19062052     0.16000
O979        O  0.04469423  0.41710566  0.21958141    -0.60000
H980        H  0.03844804  0.42619847  0.17742489     0.14400
H981        H  0.06757896  0.44902091  0.09161180     0.46300
H982        H  0.08707647  0.37092423  0.14407684     0.41700
H983        H  0.02828460  0.41526510  0.22056061     0.45100
H984        H  0.03311177  0.35864238  0.12618547     0.36600
C985        C  0.82962134  0.54475977  0.89264782    -0.27700
C986        C  0.82435820  0.52714706  0.90724768     0.01900
C987        C  0.80182372  0.52166826  0.91080235     0.30000
C988        C  0.78500805  0.53372227  0.89987855    -0.19500
C989        C  0.79011703  0.55164685  0.88547618    -0.28900
C990        C  0.81281209  0.55707024  0.88194055     0.44100
C991        C  0.84228493  0.51650461  0.92068546     0.05200
O992        O  0.79601302  0.50578086  0.92630109    -0.57400
H993        H  0.76782677  0.52931972  0.90333845     0.18200
O994        O  0.81888446  0.57444938  0.86827986    -0.64100
H995        H  0.84690222  0.54936734  0.88996937     0.16600
C996        C  0.84523183  0.49311513  0.92162493     0.28900
C997        C  0.86107007  0.48379613  0.93629352    -0.25000
C998        C  0.87406237  0.49757748  0.95014990    -0.24300
C999        C  0.87194178  0.52107344  0.94797137     0.40300
C1000       C  0.85609582  0.53022687  0.93356755    -0.26700
O1001       O  0.83313648  0.47938173  0.90784455    -0.58600
H1002       H  0.86278046  0.46577581  0.93716855     0.16000
O1003       O  0.88502280  0.53542458  0.96009482    -0.60000
H1004       H  0.85422869  0.54825046  0.93286730     0.14400
H1005       H  0.82074757  0.58748702  0.87835427     0.46300
H1006       H  0.82396061  0.46990737  0.91784434     0.41700
H1007       H  0.89900286  0.53696792  0.95135015     0.45100
H1008       H  0.78896215  0.49352463  0.91770364     0.36600
C1009       C  0.57898068  0.15092556  0.04879724    -0.27700
C1010       C  0.56380281  0.15614420  0.03175304     0.01900
C1011       C  0.56169877  0.17841959  0.02461616     0.30000
C1012       C  0.57434194  0.19522680  0.03477672    -0.19500
C1013       C  0.58939315  0.19030178  0.05220041    -0.28900
C1014       C  0.59180856  0.16771605  0.05895142     0.44100
C1015       C  0.54922327  0.13855832  0.02231774     0.05200
O1016       O  0.54638223  0.18408265  0.00853925    -0.57400
H1017       H  0.57191655  0.21228413  0.02916421     0.18200
O1018       O  0.60664729  0.16173992  0.07533925    -0.64100
H1019       H  0.58074149  0.13376621  0.05438206     0.16600
C1020       C  0.55160248  0.13139069  0.00011054     0.28900
C1021       C  0.53656977  0.11584030  0.99113171    -0.25000
C1022       C  0.51879048  0.10736317  0.00396756    -0.24300
C1023       C  0.51686483  0.11430782  0.02650085     0.40300
C1024       C  0.53199584  0.12973658  0.03540758    -0.26700
O1025       O  0.56883788  0.13922205  0.98722266    -0.58600
H1026       H  0.53870489  0.11069672  0.97393560     0.16000
O1027       O  0.49996729  0.10663743  0.03991192    -0.60000
H1028       H  0.52997640  0.13522642  0.05252355     0.14400
H1029       H  0.59770981  0.16103064  0.08925991     0.46300
H1030       H  0.56187042  0.14963101  0.97636222     0.41700
H1031       H  0.50629993  0.09347743  0.04780597     0.45100
H1032       H  0.55524732  0.18706523  0.99488755     0.36600
C1033       C  0.34232509  0.31112601  0.73709361    -0.27700
C1034       C  0.32691787  0.31530412  0.71998776     0.01900
C1035       C  0.33145073  0.33216199  0.70422553     0.30000
C1036       C  0.35087594  0.34509313  0.70618702    -0.19500
C1037       C  0.36595500  0.34146145  0.72381576    -0.28900
C1038       C  0.36175757  0.32388024  0.73900739     0.44100
C1039       C  0.30547649  0.30303541  0.71997340     0.05200
O1040       O  0.31626033  0.33712157  0.68781693    -0.57400
H1041       H  0.35365950  0.35856986  0.69440986     0.18200
O1042       O  0.37636302  0.31916359  0.75600572    -0.64100
H1043       H  0.33907929  0.29807959  0.74924130     0.16600
C1044       C  0.29941689  0.28868787  0.70242206     0.28900
C1045       C  0.27930290  0.27674739  0.70348177    -0.25000
C1046       C  0.26497033  0.27874111  0.72204167    -0.24300
C1047       C  0.27117564  0.29341638  0.73951212     0.40300
C1048       C  0.29125515  0.30521940  0.73837204    -0.26700
O1049       O  0.31326069  0.28582945  0.68441947    -0.58600
H1050       H  0.27512399  0.26566153  0.68983254     0.16000
O1051       O  0.25824904  0.29585653  0.75824149    -0.60000
H1052       H  0.29582211  0.31613587  0.75205512     0.14400
H1053       H  0.38700627  0.30813547  0.74967906     0.46300
H1054       H  0.32356278  0.27357148  0.68876460     0.41700
H1055       H  0.24914753  0.30946099  0.75550510     0.45100
H1056       H  0.32258192  0.33067245  0.67395488     0.36600
C1057       C  0.46872270  0.42169924  0.62616808    -0.27700
C1058       C  0.45071855  0.43056857  0.63833690     0.01900
C1059       C  0.44337707  0.45240819  0.63367815     0.30000
C1060       C  0.45429507  0.46522197  0.61746416    -0.19500
C1061       C  0.47268948  0.45666239  0.60553262    -0.28900
C1062       C  0.47966282  0.43452914  0.60982680     0.44100
C1063       C  0.44062554  0.41752065  0.65684006     0.05200
O1064       O  0.42642660  0.46185591  0.64587402    -0.57400
H1065       H  0.44865957  0.48223474  0.61471283     0.18200
O1066       O  0.49674784  0.42509815  0.59784650    -0.64100
H1067       H  0.47441398  0.40481045  0.62949643     0.16600
C1068       C  0.41802092  0.41108817  0.65646555     0.28900
C1069       C  0.40884255  0.39937804  0.67456992    -0.25000
C1070       C  0.42184987  0.39415830  0.69342108    -0.24300
C1071       C  0.44450848  0.40065895  0.69369787     0.40300
C1072       C  0.45370315  0.41207769  0.67547113    -0.26700
O1073       O  0.40472713  0.41629832  0.63855966    -0.58600
H1074       H  0.39138622  0.39471104  0.67401067     0.16000
O1075       O  0.45790767  0.39591870  0.71165356    -0.60000
H1076       H  0.47108220  0.41703761  0.67602533     0.14400
H1077       H  0.51018114  0.42677490  0.60735449     0.46300
H1078       H  0.40694512  0.40391066  0.62780805     0.41700
H1079       H  0.46367613  0.38060825  0.70889870     0.45100
H1080       H  0.41334393  0.46211922  0.63575684     0.36600
C1081       C  0.62779089  0.49618488  0.06703210    -0.27700
C1082       C  0.63475000  0.51801012  0.06193814     0.01900
C1083       C  0.62643679  0.52857686  0.04265853     0.30000
C1084       C  0.61166728  0.51726919  0.02864184    -0.19500
C1085       C  0.60468788  0.49536613  0.03352017    -0.28900
C1086       C  0.61281772  0.48486038  0.05304526     0.44100
C1087       C  0.65239966  0.52896899  0.07528781     0.05200
O1088       O  0.63381574  0.54944684  0.03660844    -0.57400
H1089       H  0.60582274  0.52572492  0.01373391     0.18200
O1090       O  0.60672067  0.46340599  0.05837553    -0.64100
H1091       H  0.63429681  0.48778131  0.08169281     0.16600
C1092       C  0.64916593  0.55036129  0.08447988     0.28900
C1093       C  0.66739071  0.56236066  0.09276082    -0.25000
C1094       C  0.68907270  0.55325454  0.09223775    -0.24300
C1095       C  0.69184679  0.53097100  0.08482441     0.40300
C1096       C  0.67356007  0.51904192  0.07650322    -0.26700
O1097       O  0.62840669  0.56006345  0.08452614    -0.58600
H1098       H  0.66457111  0.57920817  0.09876779     0.16000
O1099       O  0.71233189  0.52070740  0.08538882    -0.60000
H1100       H  0.67618755  0.50240215  0.06983892     0.14400
H1101       H  0.61795472  0.45370070  0.05100897     0.46300
H1102       H  0.62210108  0.55667782  0.09945970     0.41700
H1103       H  0.71792039  0.52124836  0.06981632     0.45100
H1104       H  0.62100639  0.55963457  0.03924509     0.36600
C1105       C  0.68126784  0.53877735  0.88978216    -0.27700
C1106       C  0.66626997  0.55632798  0.89387367     0.01900
C1107       C  0.67276807  0.57844155  0.88950182     0.30000
C1108       C  0.69419397  0.58287689  0.88137208    -0.19500
C1109       C  0.70957041  0.56544104  0.87785666    -0.28900
C1110       C  0.70287921  0.54319110  0.88199413     0.44100
C1111       C  0.64414273  0.55142797  0.90348161     0.05200
O1112       O  0.65846247  0.59586518  0.89366806    -0.57400
H1113       H  0.69902623  0.60010029  0.87852923     0.18200
O1114       O  0.71712485  0.52565212  0.87800958    -0.64100
H1115       H  0.67632164  0.52165175  0.89303891     0.16600
C1116       C  0.62687480  0.54274854  0.89019329     0.28900
C1117       C  0.60661667  0.53640109  0.90002956    -0.25000
C1118       C  0.60366622  0.53798824  0.92321077    -0.24300
C1119       C  0.62068265  0.54760694  0.93633702     0.40300
C1120       C  0.64066157  0.55448434  0.92638458    -0.26700
O1121       O  0.62988410  0.53992100  0.86768552    -0.58600
H1122       H  0.59385927  0.52873910  0.88977016     0.16000
O1123       O  0.61802855  0.54994998  0.95897666    -0.60000
H1124       H  0.65382822  0.56134325  0.93670508     0.14400
H1125       H  0.72306603  0.52133607  0.89286579     0.46300
H1126       H  0.63623813  0.52467888  0.86604675     0.41700
H1127       H  0.62684596  0.53764189  0.96576102     0.45100
H1128       H  0.64919273  0.59723801  0.88002103     0.36600
C1129       C  0.44312081  0.35978784  0.02922416    -0.27700
C1130       C  0.42546408  0.34892674  0.01853449     0.01900
C1131       C  0.41966794  0.35516791  0.99662312     0.30000
C1132       C  0.43182675  0.37187478  0.98548948    -0.19500
C1133       C  0.45010801  0.38225838  0.99587679    -0.28900
C1134       C  0.45542933  0.37628593  0.01812384     0.44100
C1135       C  0.41371993  0.33054070  0.03014754     0.05200
O1136       O  0.40239113  0.34474312  0.98584549    -0.57400
H1137       H  0.42748244  0.37609029  0.96844230     0.18200
O1138       O  0.47239861  0.38678936  0.02935042    -0.64100
H1139       H  0.44756834  0.35523504  0.04616698     0.16600
C1140       C  0.42268603  0.30880575  0.03029782     0.28900
C1141       C  0.41098668  0.29134280  0.04058255    -0.25000
C1142       C  0.39045016  0.29526874  0.05131673    -0.24300
C1143       C  0.38194165  0.31732645  0.05182887     0.40300
C1144       C  0.39353297  0.33471143  0.04119330    -0.26700
O1145       O  0.44260194  0.30437211  0.01990170    -0.58600
H1146       H  0.41803826  0.27464982  0.04012812     0.16000
O1147       O  0.36207576  0.32205029  0.06217384    -0.60000
H1148       H  0.38664822  0.35147905  0.04138560     0.14400
H1149       H  0.48513059  0.37616765  0.02897716     0.46300
H1150       H  0.45416728  0.30676707  0.03149686     0.41700
H1151       H  0.35055429  0.32037357  0.05041709     0.45100
H1152       H  0.40920004  0.33153410  0.97850777     0.36600
C1153       C  0.59358800  0.35526193  0.03752814    -0.27700
C1154       C  0.57942791  0.33771466  0.04402755     0.01900
C1155       C  0.55627731  0.34145229  0.04503667     0.30000
C1156       C  0.54741561  0.36176615  0.03764096    -0.19500
C1157       C  0.56135630  0.37869647  0.02932817    -0.28900
C1158       C  0.58468197  0.37577700  0.03031635     0.44100
C1159       C  0.58856525  0.31512603  0.04845990     0.05200
O1160       O  0.54223744  0.32523026  0.05316038    -0.57400
H1161       H  0.52945338  0.36395265  0.03757836     0.18200
O1162       O  0.59879369  0.39201616  0.02246819    -0.64100
H1163       H  0.61148040  0.35266440  0.03699405     0.16600
C1164       C  0.58132229  0.29664927  0.03585947     0.28900
C1165       C  0.58830866  0.27507287  0.04150109    -0.25000
C1166       C  0.60288806  0.27139518  0.05952642    -0.24300
C1167       C  0.61127952  0.29021024  0.07121663     0.40300
C1168       C  0.60401191  0.31180126  0.06566287    -0.26700
O1169       O  0.56705252  0.29947462  0.01817382    -0.58600
H1170       H  0.58189000  0.26116261  0.03189635     0.16000
O1171       O  0.62592214  0.28779341  0.08864014    -0.60000
H1172       H  0.60996466  0.32593666  0.07525821     0.14400
H1173       H  0.60281665  0.40101497  0.03574894     0.46300
H1174       H  0.57673539  0.30355880  0.00538293     0.41700
H1175       H  0.64094980  0.28955299  0.08192312     0.45100
H1176       H  0.53341039  0.32003657  0.04016823     0.36600
C1177       C  0.45025329  0.56719395  0.81129215    -0.27700
C1178       C  0.45038268  0.57867773  0.83162482     0.01900
C1179       C  0.44032640  0.59990744  0.83294380     0.30000
C1180       C  0.43031580  0.60939729  0.81392774    -0.19500
C1181       C  0.43033260  0.59796650  0.79338346    -0.28900
C1182       C  0.44040549  0.57659037  0.79231273     0.44100
C1183       C  0.46098946  0.56786543  0.85117767     0.05200
O1184       O  0.44030037  0.61151501  0.85266499    -0.57400
H1185       H  0.42272045  0.62580201  0.81520592     0.18200
O1186       O  0.44047374  0.56447746  0.77289294    -0.64100
H1187       H  0.45783111  0.55076005  0.81015570     0.16600
C1188       C  0.45009180  0.55037124  0.86241038     0.28900
C1189       C  0.46165119  0.53754477  0.87820806    -0.25000
C1190       C  0.48421152  0.54187283  0.88316521    -0.24300
C1191       C  0.49480139  0.56009846  0.87255393     0.40300
C1192       C  0.48314402  0.57296576  0.85673358    -0.26700
O1193       O  0.42846540  0.54498001  0.85722179    -0.58600
H1194       H  0.45306653  0.52373348  0.88617254     0.16000
O1195       O  0.51685562  0.56470999  0.87651183    -0.60000
H1196       H  0.49176149  0.58625237  0.84796118     0.14400
H1197       H  0.42637922  0.55582877  0.77312232     0.46300
H1198       H  0.41916144  0.55379351  0.86773775     0.41700
H1199       H  0.52525311  0.55547348  0.86561464     0.45100
H1200       H  0.42677411  0.60638642  0.86068940     0.36600
C1201       C  0.40991595  0.38335053  0.81477910    -0.27700
C1202       C  0.42831270  0.39749245  0.81742737     0.01900
C1203       C  0.44184087  0.40240349  0.79888550     0.30000
C1204       C  0.43613022  0.39427670  0.77775434    -0.19500
C1205       C  0.41688227  0.38121414  0.77463799    -0.28900
C1206       C  0.40417559  0.37510793  0.79364931     0.44100
C1207       C  0.43304412  0.40776600  0.83935788     0.05200
O1208       O  0.46088349  0.41488905  0.80141177    -0.57400
H1209       H  0.44663106  0.39867103  0.76370366     0.18200
O1210       O  0.38550807  0.36201669  0.79176479    -0.64100
H1211       H  0.39957539  0.37923051  0.82903929     0.16600
C1212       C  0.43188432  0.43110857  0.84195544     0.28900
C1213       C  0.43946855  0.44099105  0.86168504    -0.25000
C1214       C  0.44816737  0.42785708  0.87909924    -0.24300
C1215       C  0.44757946  0.40434941  0.87718562     0.40300
C1216       C  0.44012112  0.39445971  0.85732205    -0.26700
O1217       O  0.42342076  0.44431816  0.82519611    -0.58600
H1218       H  0.43934168  0.45906860  0.86302361     0.16000
O1219       O  0.45610819  0.39097947  0.89373794    -0.60000
H1220       H  0.44089411  0.37644393  0.85553093     0.14400
H1221       H  0.39072056  0.34654471  0.79484088     0.46300
H1222       H  0.43624419  0.45307794  0.81945436     0.41700
H1223       H  0.44314976  0.38712759  0.90328335     0.45100
H1224       H  0.45791424  0.42922514  0.79360521     0.36600
C1225       C  0.30915357  0.01614600  0.39727987    -0.27700
C1226       C  0.32596543  0.02832667  0.40800809     0.01900
C1227       C  0.32607386  0.05181671  0.40623398     0.30000
C1228       C  0.30901896  0.06285634  0.39449057    -0.19500
C1229       C  0.29140189  0.05074840  0.38487079    -0.28900
C1230       C  0.29186353  0.02715205  0.38594195     0.44100
C1231       C  0.34241256  0.01644767  0.42222772     0.05200
O1232       O  0.34289681  0.06403600  0.41581945    -0.57400
H1233       H  0.30911460  0.08096347  0.39370657     0.18200
O1234       O  0.27567143  0.01466815  0.37564663    -0.64100
H1235       H  0.30903100  0.99805042  0.39832833     0.16600
C1236       C  0.34183181  0.01897974  0.44552555     0.28900
C1237       C  0.35725343  0.00759651  0.45892648    -0.25000
C1238       C  0.37356828  0.99347033  0.44952364    -0.24300
C1239       C  0.37378775  0.99058583  0.42611636     0.40300
C1240       C  0.35828122  0.00205274  0.41268411    -0.26700
O1241       O  0.32561275  0.03185455  0.45537960    -0.58600
H1242       H  0.35626580  0.00978283  0.47684870     0.16000
O1243       O  0.38947877  0.97723443  0.41610371    -0.56800
H1244       H  0.35875331  0.99985421  0.39474313     0.14400
H1245       H  0.26537670  0.01001468  0.38773949     0.46300
H1246       H  0.33345756  0.04529020  0.46108689     0.41700
H1247       H  0.38196168  0.96265534  0.41377150     0.45100
H1248       H  0.33594925  0.07181413  0.42868224     0.36600
C1249       C  0.93899666  0.91675903  0.34024542    -0.27700
C1250       C  0.93988048  0.89402856  0.33473683     0.01900
C1251       C  0.94688193  0.87849019  0.35100682     0.30000
C1252       C  0.95347708  0.88592949  0.37224211    -0.19500
C1253       C  0.95325930  0.90883045  0.37760887    -0.28900
C1254       C  0.94559682  0.92424337  0.36133240     0.44100
C1255       C  0.93381245  0.88703952  0.31176172     0.05200
O1256       O  0.94879035  0.85622804  0.34578345    -0.57400
H1257       H  0.95964324  0.87378484  0.38418546     0.18200
O1258       O  0.94448676  0.94673575  0.36576211    -0.64100
H1259       H  0.93336920  0.92886692  0.32798630     0.16600
C1260       C  0.91626425  0.87198000  0.30794682     0.28900
C1261       C  0.91005922  0.86662286  0.28607455    -0.25000
C1262       C  0.92097622  0.87618067  0.26753300    -0.24300
C1263       C  0.93859679  0.89135266  0.27146516     0.40300
C1264       C  0.94489399  0.89655834  0.29339957    -0.26700
O1265       O  0.90413095  0.86357621  0.32548117    -0.58600
H1266       H  0.89630931  0.85513578  0.28374672     0.16000
O1267       O  0.94953152  0.90157416  0.25413718    -0.60000
H1268       H  0.95832949  0.90836014  0.29610745     0.14400
H1269       H  0.95790594  0.95329472  0.35859929     0.46300
H1270       H  0.90709464  0.84725258  0.32556546     0.41700
H1271       H  0.94135519  0.91580322  0.25158314     0.45100
H1272       H  0.93746136  0.84848855  0.35506646     0.36600
C1273       C  0.09193726  0.79575952  0.53542779    -0.27700
C1274       C  0.09409385  0.81308367  0.55098517     0.01900
C1275       C  0.10121259  0.80816817  0.57273944     0.30000
C1276       C  0.10554444  0.78600560  0.57890226    -0.19500
C1277       C  0.10284864  0.76831881  0.56357607    -0.28900
C1278       C  0.09632988  0.77354835  0.54148243     0.44100
C1279       C  0.08788945  0.83608159  0.54450084     0.05200
O1280       O  0.10356524  0.82487775  0.58821832    -0.57400
H1281       H  0.11062481  0.78272175  0.59592777     0.18200
O1282       O  0.09381095  0.75717571  0.52570069    -0.64100
H1283       H  0.08646928  0.79946090  0.51857899     0.16600
C1284       C  0.10171210  0.84882283  0.53044790     0.28900
C1285       C  0.09445979  0.86972071  0.52266739    -0.25000
C1286       C  0.07316826  0.87783995  0.52828063    -0.24300
C1287       C  0.05976575  0.86540608  0.54316498     0.40300
C1288       C  0.06721959  0.84472601  0.55122446    -0.26700
O1289       O  0.12216234  0.84079579  0.52397029    -0.58600
H1290       H  0.10497676  0.87898300  0.51122319     0.16000
O1291       O  0.03906604  0.87298950  0.54939197    -0.60000
H1292       H  0.05649925  0.83502568  0.56211360     0.14400
H1293       H  0.10850041  0.75614825  0.51813855     0.46300
H1294       H  0.11932191  0.83241884  0.50998374     0.41700
H1295       H  0.04168663  0.88211223  0.56295662     0.45100
H1296       H  0.11891695  0.83064719  0.58604299     0.36600
C1297       C  0.15188436  0.04501840  0.58064804    -0.27700
C1298       C  0.15710979  0.02601426  0.56790682     0.01900
C1299       C  0.17894520  0.01742091  0.56869221     0.30000
C1300       C  0.19523555  0.02800734  0.58168344    -0.19500
C1301       C  0.19028698  0.04732132  0.59424325    -0.28900
C1302       C  0.16815928  0.05561911  0.59378111     0.44100
C1303       C  0.14015975  0.01622258  0.55264192     0.05200
O1304       O  0.18488789  0.99950784  0.55567315    -0.57400
H1305       H  0.21198295  0.02116809  0.58149374     0.18200
O1306       O  0.16219534  0.07417765  0.60582560    -0.64100
H1307       H  0.13512806  0.05184776  0.58017926     0.16600
C1308       C  0.13341439  0.99372408  0.55441433     0.28900
C1309       C  0.11826374  0.98471465  0.53897012    -0.25000
C1310       C  0.10947553  0.99785097  0.52150921    -0.24300
C1311       C  0.11615086  0.02055463  0.52004583     0.40300
C1312       C  0.13114696  0.02948967  0.53558635    -0.26700
O1313       O  0.14153866  0.98037739  0.57118859    -0.58600
H1314       H  0.11347505  0.96733385  0.54066718     0.16000
O1315       O  0.10816663  0.03432337  0.50353381    -0.60000
H1316       H  0.13617890  0.04682271  0.53398388     0.14400
H1317       H  0.16368437  0.08691265  0.59530622     0.46300
H1318       H  0.13152755  0.98308305  0.58409089     0.41700
H1319       H  0.11938978  0.03349336  0.49139026     0.45100
H1320       H  0.18697472  0.98686034  0.56619513     0.36600
C1321       C  0.12707429  0.03180347  0.37764214    -0.27700
C1322       C  0.14301249  0.03973723  0.39286927     0.01900
C1323       C  0.13670450  0.04315356  0.41524203     0.30000
C1324       C  0.11541130  0.03682538  0.42247235    -0.19500
C1325       C  0.09994532  0.02729938  0.40764452    -0.28900
C1326       C  0.10561225  0.02578468  0.38481007     0.44100
C1327       C  0.16618630  0.04433545  0.38538459     0.05200
O1328       O  0.15111304  0.05317990  0.42997356    -0.57400
H1329       H  0.11122407  0.03885857  0.43994995     0.18200
O1330       O  0.09092232  0.01706006  0.36960172    -0.64100
H1331       H  0.13152297  0.02954116  0.36026005     0.16600
C1332       C  0.18464181  0.03468405  0.39639550     0.28900
C1333       C  0.20638767  0.04073460  0.39027111    -0.25000
C1334       C  0.21015770  0.05637747  0.37317970    -0.24300
C1335       C  0.19164787  0.06457522  0.36098035     0.40300
C1336       C  0.16993373  0.05866814  0.36723914    -0.26700
O1337       O  0.18151486  0.01888384  0.41275648    -0.58600
H1338       H  0.22027206  0.03363857  0.39946291     0.16000
O1339       O  0.19446905  0.07866283  0.34312170    -0.60000
H1340       H  0.15593602  0.06576290  0.35821160     0.14400
H1341       H  0.08353602  0.03022265  0.36270085     0.46300
H1342       H  0.18815893  0.02524876  0.42652148     0.41700
H1343       H  0.19666917  0.06868450  0.33008503     0.45100
H1344       H  0.15373592  0.04207852  0.44202997     0.36600
C1345       C  0.91189984  0.80207302  0.52225724    -0.27700
C1346       C  0.91371108  0.82317115  0.53212382     0.01900
C1347       C  0.90283053  0.82714697  0.55259136     0.30000
C1348       C  0.89124750  0.80975080  0.56333973    -0.19500
C1349       C  0.89054398  0.78810437  0.55411661    -0.28900
C1350       C  0.90063802  0.78463937  0.53300998     0.44100
C1351       C  0.92844312  0.84010121  0.52151242     0.05200
O1352       O  0.90316473  0.84806872  0.56198775    -0.57400
H1353       H  0.88338505  0.81313004  0.57926324     0.18200
O1354       O  0.89966826  0.76429007  0.52256941    -0.64100
H1355       H  0.92003344  0.79879932  0.50643220     0.16600
C1356       C  0.94736592  0.84811458  0.53282365     0.28900
C1357       C  0.96224877  0.86252131  0.52203850    -0.25000
C1358       C  0.95899973  0.86903495  0.49964069    -0.24300
C1359       C  0.94009913  0.86074241  0.48822389     0.40300
C1360       C  0.92502828  0.84648092  0.49918935    -0.26700
O1361       O  0.95191908  0.84136918  0.55424107    -0.58600
H1362       H  0.97665382  0.86829692  0.53129394     0.16000
O1363       O  0.93607597  0.86644096  0.46641635    -0.60000
H1364       H  0.91073394  0.84012832  0.49013115     0.14400
H1365       H  0.91486204  0.75785670  0.52407309     0.46300
H1366       H  0.96015947  0.82704484  0.55267990     0.41700
H1367       H  0.94314209  0.85441848  0.45745872     0.45100
H1368       H  0.91236940  0.84662236  0.57566029     0.36600
C1369       C  0.04493751  0.58735940  0.14647637    -0.27700
C1370       C  0.02589636  0.57432407  0.15051362     0.01900
C1371       C  0.01762690  0.57264644  0.17240783     0.30000
C1372       C  0.02878934  0.58331500  0.18993027    -0.19500
C1373       C  0.04838814  0.59577150  0.18615185    -0.28900
C1374       C  0.05619902  0.59798777  0.16398724     0.44100
C1375       C  0.01665335  0.56032798  0.13231952     0.05200
O1376       O  0.99973518  0.55913261  0.17711410    -0.57400
H1377       H  0.02231617  0.58116373  0.20667110     0.18200
O1378       O  0.07504913  0.61004054  0.15916683    -0.64100
H1379       H  0.05153308  0.58871309  0.12968579     0.16600
C1380       C  0.99402652  0.56125395  0.12602739     0.28900
C1381       C  0.98584934  0.54655378  0.10967933    -0.25000
C1382       C  0.99994352  0.53065668  0.09954247    -0.24300
C1383       C  0.02282658  0.53047631  0.10542777     0.40300
C1384       C  0.03086660  0.54511386  0.12165811    -0.26700
O1385       O  0.98000486  0.57684299  0.13533985    -0.58600
H1386       H  0.96832697  0.54735344  0.10529545     0.16000
O1387       O  0.03751302  0.51563496  0.09597439    -0.60000
H1388       H  0.04831720  0.54419632  0.12634558     0.14400
H1389       H  0.08736496  0.59892421  0.15897840     0.46300
H1390       H  0.96868383  0.56817713  0.14376818     0.41700
H1391       H  0.04382547  0.52359000  0.08287990     0.45100
H1392       H  0.98757050  0.56939968  0.18172987     0.36600
C1393       C  0.63515566  0.47623409  0.42890927    -0.27700
C1394       C  0.64121458  0.45397821  0.43361521     0.01900
C1395       C  0.63105900  0.44304938  0.45174119     0.30000
C1396       C  0.61505642  0.45420255  0.46464302    -0.19500
C1397       C  0.60871096  0.47646738  0.45997855    -0.28900
C1398       C  0.61911285  0.48748891  0.44189465     0.44100
C1399       C  0.65903790  0.44269441  0.42040660     0.05200
O1400       O  0.63764862  0.42189070  0.45779620    -0.57400
H1401       H  0.60787081  0.44531276  0.47866974     0.18200
O1402       O  0.61367034  0.50913314  0.43658502    -0.64100
H1403       H  0.64297189  0.48495586  0.41511473     0.16600
C1404       C  0.65533455  0.42209936  0.40957630     0.28900
C1405       C  0.67288947  0.41122523  0.39844251    -0.25000
C1406       C  0.69442781  0.42059391  0.39770012    -0.24300
C1407       C  0.69784225  0.44159985  0.40811491     0.40300
C1408       C  0.68026016  0.45239475  0.41917522    -0.26700
O1409       O  0.63460446  0.41241346  0.40977027    -0.58600
H1410       H  0.66961101  0.39527221  0.39056107     0.16000
O1411       O  0.71818847  0.45205144  0.40736379    -0.60000
H1412       H  0.68337519  0.46828561  0.42726833     0.14400
H1413       H  0.62496889  0.51846193  0.44427717     0.46300
H1414       H  0.62617699  0.41998787  0.39767680     0.41700
H1415       H  0.72542680  0.44851231  0.42183597     0.45100
H1416       H  0.62481385  0.41205695  0.45426808     0.36600
C1417       C  0.06955948  0.62285934  0.49770668    -0.27700
C1418       C  0.06056196  0.63492460  0.51568419     0.01900
C1419       C  0.03818977  0.63147801  0.52172639     0.30000
C1420       C  0.02520176  0.61600207  0.51010731    -0.19500
C1421       C  0.03407190  0.60350551  0.49223913    -0.28900
C1422       C  0.05652907  0.60721815  0.48600383     0.44100
C1423       C  0.07415513  0.65162785  0.52786354     0.05200
O1424       O  0.02859576  0.64390719  0.53842583    -0.57400
H1425       H  0.00797403  0.61394055  0.51518216     0.18200
O1426       O  0.06601376  0.59559386  0.46871483    -0.64100
H1427       H  0.08675699  0.62552222  0.49280319     0.16600
C1428       C  0.07880240  0.64894441  0.55074159     0.28900
C1429       C  0.08879027  0.66632320  0.56278141    -0.25000
C1430       C  0.09433616  0.68666486  0.55233820    -0.24300
C1431       C  0.09089870  0.68869894  0.52904148     0.40300
C1432       C  0.08083740  0.67129512  0.51706300    -0.26700
O1433       O  0.07290559  0.62966436  0.56166784    -0.58600
H1434       H  0.09141933  0.66411520  0.58053497     0.16000
O1435       O  0.09680549  0.70777885  0.51780706    -0.60000
H1436       H  0.07750186  0.67349396  0.49941837     0.14400
H1437       H  0.06398730  0.60526856  0.45540111     0.46300
H1438       H  0.08504159  0.61887749  0.55837422     0.41700
H1439       H  0.11256154  0.70541046  0.51329797     0.45100
H1440       H  0.02741911  0.63364451  0.55138016     0.36600
C1441       C  0.90070148  0.67987124  0.54230819    -0.27700
C1442       C  0.89731171  0.66277107  0.55792511     0.01900
C1443       C  0.88546466  0.66738310  0.57760294     0.30000
C1444       C  0.87819441  0.68927236  0.58193852    -0.19500
C1445       C  0.88238257  0.70677867  0.56667972    -0.28900
C1446       C  0.89313739  0.70157229  0.54634694     0.44100
C1447       C  0.90722981  0.64060677  0.55338567     0.05200
O1448       O  0.88209707  0.65094913  0.59323510    -0.57400
H1449       H  0.86983731  0.69258567  0.59761757     0.18200
O1450       O  0.89677083  0.71753226  0.53035047    -0.64100
H1451       H  0.90948646  0.67637635  0.52687872     0.16600
C1452       C  0.89387265  0.62181415  0.54880586     0.28900
C1453       C  0.90361473  0.60244972  0.53983962    -0.25000
C1454       C  0.92656114  0.60182541  0.53503905    -0.24300
C1455       C  0.94010306  0.61999274  0.54153676     0.40300
C1456       C  0.93038496  0.63917908  0.55050915    -0.26700
O1457       O  0.87117370  0.62274204  0.55157807    -0.58600
H1458       H  0.89297520  0.58861143  0.53510723     0.16000
O1459       O  0.96273569  0.61969803  0.53803122    -0.60000
H1460       H  0.94084970  0.65347857  0.55420084     0.14400
H1461       H  0.88375879  0.71653939  0.52017892     0.46300
H1462       H  0.86528464  0.62883272  0.53734159     0.41700
H1463       H  0.96905370  0.61161668  0.55105863     0.45100
H1464       H  0.86622396  0.64662645  0.59164701     0.36600
C1465       C  0.00812940  0.40958471  0.36248538    -0.27700
C1466       C  0.01566617  0.41915467  0.34241129     0.01900
C1467       C  0.01314621  0.44233860  0.33918089     0.30000
C1468       C  0.00316443  0.45554943  0.35566071    -0.19500
C1469       C  0.99525615  0.44610634  0.37567683    -0.28900
C1470       C  0.99778051  0.42283482  0.37896507     0.44100
C1471       C  0.02589137  0.40520643  0.32454307     0.05200
O1472       O  0.02042999  0.45229557  0.31986825    -0.57400
H1473       H  0.00139813  0.47333197  0.35259802     0.18200
O1474       O  0.99094627  0.41300935  0.39848790    -0.64100
H1475       H  0.01002135  0.39177384  0.36526168     0.16600
C1476       C  0.04655594  0.39437651  0.32759034     0.28900
C1477       C  0.05724853  0.38401659  0.30942401    -0.25000
C1478       C  0.04757336  0.38419490  0.28798880    -0.24300
C1479       C  0.02624272  0.39399007  0.28537699     0.40300
C1480       C  0.01567209  0.40434597  0.30351391    -0.26700
O1481       O  0.05709565  0.39506906  0.34788829    -0.58600
H1482       H  0.07353620  0.37655255  0.31198483     0.16000
O1483       O  0.01536500  0.39325554  0.26524499    -0.60000
H1484       H  0.99957094  0.41224281  0.30100872     0.14400
H1485       H  0.97601434  0.40670220  0.39517548     0.46300
H1486       H  0.05289205  0.38093090  0.35545554     0.41700
H1487       H  0.01589658  0.40876089  0.25937816     0.45100
H1488       H  0.03635896  0.45583910  0.32256305     0.36600
C1489       C  0.04965434  0.55591857  0.33913409    -0.27700
C1490       C  0.04527832  0.57854001  0.33473711     0.01900
C1491       C  0.03550042  0.59189859  0.35146306     0.30000
C1492       C  0.02903267  0.58216397  0.37177905    -0.19500
C1493       C  0.03196935  0.55916605  0.37544904    -0.28900
C1494       C  0.04291069  0.54615934  0.35919954     0.44100
C1495       C  0.04930025  0.58717896  0.31194504     0.05200
O1496       O  0.03027106  0.61386105  0.34728906    -0.57400
H1497       H  0.02020449  0.59224395  0.38394424     0.18200
O1498       O  0.04660981  0.52374938  0.36263424    -0.64100
H1499       H  0.05748704  0.54554622  0.32653464     0.16600
C1500       C  0.06356934  0.60536560  0.30798487     0.28900
C1501       C  0.06813844  0.61199873  0.28604311    -0.25000
C1502       C  0.05864340  0.60073783  0.26772975    -0.24300
C1503       C  0.04399753  0.58271678  0.27185361     0.40300
C1504       C  0.03940812  0.57618976  0.29378500    -0.26700
O1505       O  0.07422329  0.61578951  0.32536240    -0.58600
H1506       H  0.07950107  0.62582316  0.28343252     0.16000
O1507       O  0.03449022  0.57093243  0.25469476    -0.60000
H1508       H  0.02833549  0.56215492  0.29664397     0.14400
H1509       H  0.03520739  0.51594825  0.35351755     0.46300
H1510       H  0.06805079  0.63119028  0.32576438     0.41700
H1511       H  0.04511378  0.55860023  0.25145571     0.45100
H1512       H  0.04011727  0.62269796  0.35720674     0.36600
C1513       C  0.85130243  0.48886167  0.56414409    -0.27700
C1514       C  0.84353186  0.46738733  0.55876144     0.01900
C1515       C  0.85311240  0.45600285  0.54062551     0.30000
C1516       C  0.87005564  0.46605240  0.52804845    -0.19500
C1517       C  0.87807875  0.48752969  0.53331551    -0.28900
C1518       C  0.86856131  0.49888946  0.55170710     0.44100
C1519       C  0.82507486  0.45687078  0.57157919     0.05200
O1520       O  0.84533516  0.43533841  0.53449245    -0.57400
H1521       H  0.87683150  0.45696911  0.51394898     0.18200
O1522       O  0.87513252  0.52019701  0.55697806    -0.64100
H1523       H  0.84389470  0.49790134  0.57795115     0.16600
C1524       C  0.82917331  0.43857536  0.58576912     0.28900
C1525       C  0.81132399  0.42684183  0.59538408    -0.25000
C1526       C  0.78899937  0.43307219  0.59120671    -0.24300
C1527       C  0.78507242  0.45222220  0.57775169     0.40300
C1528       C  0.80300858  0.46380924  0.56804661    -0.26700
O1529       O  0.85061818  0.43162700  0.58982262    -0.58600
H1530       H  0.81508183  0.41252838  0.60583053     0.16000
O1531       O  0.76381049  0.45946425  0.57330026    -0.60000
H1532       H  0.79962682  0.47788886  0.55714363     0.14400
H1533       H  0.88646181  0.51836321  0.56890621     0.46300
H1534       H  0.85538268  0.44001835  0.60326389     0.41700
H1535       H  0.76030357  0.47032875  0.58530665     0.45100
H1536       H  0.85553815  0.42447343  0.54174172     0.36600
C1537       C  0.85893133  0.43424916  0.39157923    -0.27700
C1538       C  0.84092374  0.42925855  0.40570029     0.01900
C1539       C  0.84358025  0.43083845  0.42892057     0.30000
C1540       C  0.86350791  0.43889320  0.43774529    -0.19500
C1541       C  0.88099446  0.44564921  0.42367321    -0.28900
C1542       C  0.87900839  0.44238942  0.40045670     0.44100
C1543       C  0.81882023  0.42389312  0.39640454     0.05200
O1544       O  0.82655635  0.42491541  0.44306663    -0.57400
H1545       H  0.86488117  0.44087982  0.45567471     0.18200
O1546       O  0.89568311  0.44896524  0.38622498    -0.64100
H1547       H  0.85701301  0.43290854  0.37365017     0.16600
C1548       C  0.80085809  0.43875722  0.39940505     0.28900
C1549       C  0.77928859  0.43232263  0.39342150    -0.25000
C1550       C  0.77522053  0.41111758  0.38419333    -0.24300
C1551       C  0.79357958  0.39668477  0.38016818     0.40300
C1552       C  0.81517222  0.40321598  0.38620743    -0.26700
O1553       O  0.80415036  0.45937067  0.40887035    -0.58600
H1554       H  0.76567794  0.44389035  0.39636925     0.16000
O1555       O  0.79065865  0.37586496  0.37106715    -0.60000
H1556       H  0.82896467  0.39172241  0.38379271     0.14400
H1557       H  0.90520443  0.43553132  0.38426853     0.46300
H1558       H  0.80929728  0.46909721  0.39647861     0.41700
H1559       H  0.78873982  0.36565373  0.38397871     0.45100
H1560       H  0.81982898  0.43922360  0.44808913     0.36600
C1561       C  0.32279549  0.93297110  0.07962109    -0.27700
C1562       C  0.31748083  0.95081743  0.06534300     0.01900
C1563       C  0.29496369  0.95687362  0.06255649     0.30000
C1564       C  0.27815685  0.94488373  0.07361170    -0.19500
C1565       C  0.28330683  0.92668697  0.08771948    -0.28900
C1566       C  0.30605707  0.92108286  0.09088875     0.44100
C1567       C  0.33528339  0.96144327  0.05171134     0.05200
O1568       O  0.28912015  0.97349991  0.04785548    -0.57400
H1569       H  0.26096369  0.94964815  0.07064714     0.18200
O1570       O  0.31224841  0.90364224  0.10442616    -0.64100
H1571       H  0.34006465  0.92801783  0.08180661     0.16600
C1572       C  0.33944630  0.98463064  0.05237317     0.28900
C1573       C  0.35503664  0.99423999  0.03770807    -0.25000
C1574       C  0.36685915  0.98096523  0.02231111    -0.24300
C1575       C  0.36337230  0.95752639  0.02259652     0.40300
C1576       C  0.34778407  0.94807270  0.03717618    -0.26700
O1577       O  0.32830056  0.99805589  0.06720368    -0.58600
H1578       H  0.35761005  0.01216179  0.03819431     0.16000
O1579       O  0.37527451  0.94353050  0.00889076    -0.60000
H1580       H  0.34503497  0.93016543  0.03670578     0.14400
H1581       H  0.31481945  0.91043422  0.11929455     0.46300
H1582       H  0.33680756  0.99682743  0.08135297     0.41700
H1583       H  0.36505458  0.93994387  0.99639791     0.45100
H1584       H  0.28491500  0.98645734  0.05727710     0.36600
C1585       C  0.95029626  0.05484083  0.29948647    -0.27700
C1586       C  0.94399181  0.05972727  0.32147568     0.01900
C1587       C  0.92683379  0.07544856  0.32510622     0.30000
C1588       C  0.91634613  0.08598846  0.30689686    -0.19500
C1589       C  0.92249381  0.08103150  0.28474515    -0.28900
C1590       C  0.93969759  0.06508309  0.28128164     0.44100
C1591       C  0.95523208  0.04780554  0.34026534     0.05200
O1592       O  0.92089816  0.08133715  0.34642854    -0.57400
H1593       H  0.90340456  0.09819573  0.31024726     0.18200
O1594       O  0.94652909  0.05932829  0.26021913    -0.64100
H1595       H  0.96334907  0.04266750  0.29636739     0.16600
C1596       C  0.94296652  0.03452102  0.35529661     0.28900
C1597       C  0.95403003  0.02172189  0.37149204    -0.25000
C1598       C  0.97750424  0.02157469  0.37305841    -0.24300
C1599       C  0.98973929  0.03557643  0.35852483     0.40300
C1600       C  0.97861678  0.04831235  0.34220089    -0.26700
O1601       O  0.92017678  0.03312279  0.35370674    -0.58600
H1602       H  0.94409720  0.01131806  0.38246967     0.16000
O1603       O  0.01260222  0.03610751  0.35927128    -0.60000
H1604       H  0.98833980  0.05838142  0.33073022     0.14400
H1605       H  0.93754929  0.04599703  0.25622669     0.46300
H1606       H  0.91732658  0.02080891  0.34301445     0.41700
H1607       H  0.01627976  0.04863613  0.36945639     0.45100
H1608       H  0.90546674  0.07570824  0.34847118     0.36600
C1609       C  0.16667768  0.24323633  0.78652466    -0.27700
C1610       C  0.17185198  0.25926154  0.80279845     0.01900
C1611       C  0.18922911  0.27450391  0.79868786     0.30000
C1612       C  0.20140593  0.27324945  0.77875066    -0.19500
C1613       C  0.19671559  0.25677983  0.76263226    -0.28900
C1614       C  0.17882360  0.24188230  0.76664618     0.44100
C1615       C  0.16029069  0.25835853  0.82469435     0.05200
O1616       O  0.19556949  0.28952204  0.81477304    -0.57400
H1617       H  0.21505931  0.28483920  0.77633097     0.18200
O1618       O  0.17357197  0.22523741  0.75183407    -0.64100
H1619       H  0.15339410  0.23130992  0.78948550     0.16600
C1620       C  0.14939164  0.27707616  0.83397512     0.28900
C1621       C  0.13853045  0.27526659  0.85467721    -0.25000
C1622       C  0.13800784  0.25479846  0.86629982    -0.24300
C1623       C  0.14908362  0.23609396  0.85678511     0.40300
C1624       C  0.15994563  0.23804438  0.83629662    -0.26700
O1625       O  0.14878315  0.29706276  0.82274426    -0.58600
H1626       H  0.13009113  0.28981882  0.86136870     0.16000
O1627       O  0.14927600  0.21558891  0.86708987    -0.60000
H1628       H  0.16828301  0.22348970  0.82943236     0.14400
H1629       H  0.16200622  0.23177849  0.74193138     0.46300
H1630       H  0.13641525  0.29556727  0.81184346     0.41700
H1631       H  0.16294502  0.21550919  0.87642257     0.45100
H1632       H  0.19151954  0.30444073  0.80877204     0.36600
C1633       C  0.07042048  0.30350805  0.95853983    -0.27700
C1634       C  0.07026633  0.32440123  0.94799043     0.01900
C1635       C  0.08243211  0.32717809  0.92807048     0.30000
C1636       C  0.09396651  0.30895534  0.91867313    -0.19500
C1637       C  0.09338668  0.28762118  0.92870319    -0.28900
C1638       C  0.08165193  0.28524758  0.94913018     0.44100
C1639       C  0.05622396  0.34260795  0.95745037     0.05200
O1640       O  0.08354707  0.34777885  0.91800173    -0.57400
H1641       H  0.10302439  0.31152775  0.90324001     0.18200
O1642       O  0.08100689  0.26520741  0.96025064    -0.64100
H1643       H  0.06120027  0.30114574  0.97392663     0.16600
C1644       C  0.03751717  0.35057714  0.94572418     0.28900
C1645       C  0.02301095  0.36596982  0.95574816    -0.25000
C1646       C  0.02674069  0.37394858  0.97757512    -0.24300
C1647       C  0.04582389  0.36621852  0.98915255     0.40300
C1648       C  0.06027355  0.35062755  0.97910678    -0.26700
O1649       O  0.03248024  0.34230724  0.92497398    -0.58600
H1650       H  0.00850488  0.37134541  0.94636761     0.16000
O1651       O  0.05056971  0.37368864  0.01024995    -0.60000
H1652       H  0.07457356  0.34453474  0.98837914     0.14400
H1653       H  0.06652934  0.25836897  0.95605890     0.46300
H1654       H  0.03542848  0.35476270  0.91443954     0.41700
H1655       H  0.04442884  0.36214757  0.02043928     0.45100
H1656       H  0.07528405  0.34623562  0.90374630     0.36600
C1657       C  0.12255603  0.95411909  0.93134191    -0.27700
C1658       C  0.13243121  0.96715453  0.91463652     0.01900
C1659       C  0.12554822  0.98949462  0.91183451     0.30000
C1660       C  0.10884696  0.99845095  0.92569717    -0.19500
C1661       C  0.09930964  0.98555530  0.94292675    -0.28900
C1662       C  0.10638869  0.96314327  0.94558528     0.44100
C1663       C  0.15092290  0.95729337  0.90150835     0.05200
O1664       O  0.13491232  0.00258649  0.89552597    -0.57400
H1665       H  0.10383716  0.01571721  0.92336815     0.18200
O1666       O  0.09738197  0.94972188  0.96183275    -0.64100
H1667       H  0.12785995  0.93694010  0.93372811     0.16600
C1668       C  0.17314457  0.96221511  0.90697967     0.28900
C1669       C  0.19054265  0.94975544  0.89755843    -0.25000
C1670       C  0.18628789  0.93220132  0.88242669    -0.24300
C1671       C  0.16393223  0.92814308  0.87607980     0.40300
C1672       C  0.14649525  0.94058299  0.88570750    -0.26700
O1673       O  0.17792897  0.97810199  0.92276522    -0.58600
H1674       H  0.20742065  0.95348286  0.90281770     0.16000
O1675       O  0.15885006  0.91211371  0.86056162    -0.60000
H1676       H  0.12938693  0.93670541  0.88134102     0.14400
H1677       H  0.10838065  0.94985634  0.97421401     0.46300
H1678       H  0.18292506  0.99140599  0.91421405     0.41700
H1679       H  0.15385380  0.89896023  0.86932708     0.45100
H1680       H  0.14607093  0.01198653  0.90333905     0.36600
C1681       C  0.16264275  0.90557144  0.09601751    -0.27700
C1682       C  0.15877303  0.92518100  0.08382912     0.01900
C1683       C  0.17654517  0.94004648  0.08000617     0.30000
C1684       C  0.19810019  0.93461865  0.08732750    -0.19500
C1685       C  0.20243712  0.91432650  0.09848847    -0.28900
C1686       C  0.18418510  0.90009429  0.10342604     0.44100
C1687       C  0.13660802  0.92932294  0.07367231     0.05200
O1688       O  0.17287481  0.96002674  0.06927838    -0.57400
H1689       H  0.21151846  0.94621440  0.08378699     0.18200
O1690       O  0.18722786  0.88025568  0.11452253    -0.64100
H1691       H  0.14903220  0.89407140  0.09913781     0.16600
C1692       C  0.13422304  0.92897272  0.05034726     0.28900
C1693       C  0.11395424  0.93517543  0.04061079    -0.25000
C1694       C  0.09581849  0.94210160  0.05379224    -0.24300
C1695       C  0.09765195  0.94082650  0.07722949     0.40300
C1696       C  0.11802876  0.93446983  0.08703229    -0.26700
O1697       O  0.15175772  0.92274025  0.03696125    -0.58600
H1698       H  0.11279853  0.93567916  0.02256009     0.16000
O1699       O  0.08041192  0.94765023  0.09065722    -0.60000
H1700       H  0.11964590  0.93457660  0.10504089     0.14400
H1701       H  0.18459545  0.88379307  0.13047384     0.46300
H1702       H  0.15646109  0.93655370  0.02909056     0.41700
H1703       H  0.07194268  0.93385035  0.09410536     0.45100
H1704       H  0.18039500  0.95864259  0.05458996     0.36600
C1705       C  0.89267330  0.14725514  0.92949024    -0.27700
C1706       C  0.90105974  0.15031224  0.95109989     0.01900
C1707       C  0.89835943  0.17114063  0.96160031     0.30000
C1708       C  0.88808916  0.18883347  0.95016731    -0.19500
C1709       C  0.88016273  0.18610548  0.92819707    -0.28900
C1710       C  0.88220377  0.16484465  0.91806292     0.44100
C1711       C  0.91467949  0.13248547  0.96155191     0.05200
O1712       O  0.90695012  0.17476021  0.98250221    -0.57400
H1713       H  0.88672197  0.20487474  0.95844619     0.18200
O1714       O  0.87473161  0.16115170  0.89675354    -0.64100
H1715       H  0.89479170  0.13128386  0.92122035     0.16600
C1716       C  0.90722578  0.12053849  0.98035273     0.28900
C1717       C  0.92111346  0.10444855  0.99034962    -0.25000
C1718       C  0.94260247  0.10005807  0.98184796    -0.24300
C1719       C  0.94974086  0.11192428  0.96265562     0.40300
C1720       C  0.93576592  0.12780178  0.95268295    -0.26700
O1721       O  0.88649246  0.12460513  0.98915565    -0.58600
H1722       H  0.91512957  0.09563779  0.00497562     0.16000
O1723       O  0.97026619  0.10806368  0.95327093    -0.60000
H1724       H  0.94161390  0.13684820  0.93812712     0.14400
H1725       H  0.88752458  0.16489458  0.88694140     0.46300
H1726       H  0.87652704  0.11343133  0.98205781     0.41700
H1727       H  0.98008836  0.11992810  0.95935624     0.45100
H1728       H  0.89444211  0.17175983  0.99291576     0.36600
C1729       C  0.08936544  0.17927809  0.94918229    -0.27700
C1730       C  0.09136939  0.16198874  0.93354127     0.01900
C1731       C  0.10122929  0.16625112  0.91277575     0.30000
C1732       C  0.10794856  0.18795471  0.90738397    -0.19500
C1733       C  0.10495776  0.20574147  0.92254637    -0.28900
C1734       C  0.09627187  0.20100531  0.94393299     0.44100
C1735       C  0.08036026  0.14048286  0.93796253     0.05200
O1736       O  0.10288978  0.14965926  0.89707269    -0.57400
H1737       H  0.11462012  0.19094518  0.89085145     0.18200
O1738       O  0.09383505  0.21749098  0.95961643    -0.64100
H1739       H  0.08175978  0.17602754  0.96527379     0.16600
C1740       C  0.09239622  0.12146803  0.94479694     0.28900
C1741       C  0.08091951  0.10188031  0.95061681    -0.25000
C1742       C  0.05747304  0.10127573  0.94993203    -0.24300
C1743       C  0.04567575  0.12004691  0.94185163     0.40300
C1744       C  0.05713479  0.13945306  0.93604014    -0.26700
O1745       O  0.11520350  0.12214622  0.94657077    -0.58600
H1746       H  0.09024515  0.08766539  0.95690670     0.16000
O1747       O  0.02283755  0.11989499  0.94035307    -0.60000
H1748       H  0.04781241  0.15399087  0.93050277     0.14400
H1749       H  0.10769738  0.21692245  0.96864492     0.46300
H1750       H  0.11819399  0.12735791  0.96199147     0.41700
H1751       H  0.01952087  0.11320589  0.92557191     0.45100
H1752       H  0.11775385  0.14280846  0.89953310     0.36600
C1753       C  0.97147909  0.90446901  0.11312959    -0.27700
C1754       C  0.95585326  0.91398669  0.12772696     0.01900
C1755       C  0.95002643  0.93659604  0.12526682     0.30000
C1756       C  0.96050464  0.94968305  0.10901248    -0.19500
C1757       C  0.97692048  0.94057190  0.09476976    -0.28900
C1758       C  0.98194440  0.91753193  0.09666252     0.44100
C1759       C  0.94664230  0.90084149  0.14648566     0.05200
O1760       O  0.93486785  0.94632478  0.13942986    -0.57400
H1761       H  0.95607989  0.96723416  0.10802404     0.18200
O1762       O  0.99700113  0.90757324  0.08258347    -0.64100
H1763       H  0.97586671  0.88695845  0.11478280     0.16600
C1764       C  0.92506814  0.89179160  0.14545884     0.28900
C1765       C  0.91561723  0.88193368  0.16445027    -0.25000
C1766       C  0.92738744  0.88101293  0.18481712    -0.24300
C1767       C  0.94954733  0.88912669  0.18534614     0.40300
C1768       C  0.95889703  0.89903804  0.16631351    -0.26700
O1769       O  0.91274508  0.89335503  0.12623156    -0.58600
H1770       H  0.89868373  0.87572301  0.16334184     0.16000
O1771       O  0.96209149  0.88803724  0.20445294    -0.60000
H1772       H  0.97558426  0.90594230  0.16721366     0.14400
H1773       H  0.01125402  0.90721736  0.09098457     0.46300
H1774       H  0.91602127  0.87941914  0.11789730     0.41700
H1775       H  0.97033759  0.87367522  0.20344053     0.45100
H1776       H  0.92022886  0.94473789  0.13187943     0.36600
C1777       C  0.93798590  0.07665949  0.17578552    -0.27700
C1778       C  0.92288962  0.08217825  0.15877280     0.01900
C1779       C  0.90378240  0.09473024  0.16382286     0.30000
C1780       C  0.89944122  0.10074546  0.18595716    -0.19500
C1781       C  0.91404947  0.09441218  0.20335257    -0.28900
C1782       C  0.93383717  0.08281941  0.19788609     0.44100
C1783       C  0.92648860  0.07279128  0.13635885     0.05200
O1784       O  0.88855490  0.09989062  0.14750676    -0.57400
H1785       H  0.88414618  0.10973712  0.18951946     0.18200
O1786       O  0.94903879  0.07694689  0.21395689    -0.64100
H1787       H  0.95286620  0.06708011  0.17193087     0.16600
C1788       C  0.93315942  0.08621436  0.11824749     0.28900
C1789       C  0.93995707  0.07610903  0.09825020    -0.25000
C1790       C  0.94053786  0.05268214  0.09639882    -0.24300
C1791       C  0.93224086  0.03947670  0.11405356     0.40300
C1792       C  0.92535332  0.04956885  0.13382996    -0.26700
O1793       O  0.93441188  0.10901307  0.12040446    -0.58600
H1794       H  0.94640715  0.08649419  0.08489788     0.16000
O1795       O  0.93212071  0.01657130  0.11266261    -0.60000
H1796       H  0.92004857  0.03914729  0.14766130     0.14400
H1797       H  0.95951557  0.08973410  0.21482682     0.46300
H1798       H  0.94961689  0.11197355  0.12622628     0.41700
H1799       H  0.91700917  0.01266850  0.10719029     0.45100
H1800       H  0.89250994  0.11517000  0.14250145     0.36600
C1801       C  0.15618623  0.71681980  0.70430793    -0.27700
C1802       C  0.16380263  0.70846022  0.68377806     0.01900
C1803       C  0.18625957  0.70169458  0.68181683     0.30000
C1804       C  0.20094760  0.70446445  0.69981429    -0.19500
C1805       C  0.19365523  0.71415965  0.71987581    -0.28900
C1806       C  0.17085192  0.71958976  0.72228082     0.44100
C1807       C  0.14924944  0.71009016  0.66376776     0.05200
O1808       O  0.19450390  0.69440234  0.66173638    -0.57400
H1809       H  0.21838465  0.70019693  0.69757606     0.18200
O1810       O  0.16280617  0.72820798  0.74190536    -0.64100
H1811       H  0.13893797  0.72198586  0.70613535     0.16600
C1812       C  0.14535425  0.69175368  0.64956187     0.28900
C1813       C  0.13425878  0.69491953  0.62915613    -0.25000
C1814       C  0.12665379  0.71626153  0.62266662    -0.24300
C1815       C  0.12924246  0.73424356  0.63779938     0.40300
C1816       C  0.14040941  0.73101750  0.65802414    -0.26700
O1817       O  0.15264265  0.67076660  0.65528253    -0.58600
H1818       H  0.13214275  0.68070915  0.61817047     0.16000
O1819       O  0.12089417  0.75511417  0.63313883    -0.60000
H1820       H  0.14292600  0.74524874  0.66892106     0.14400
H1821       H  0.15950220  0.71499647  0.75138124     0.46300
H1822       H  0.14031707  0.66416742  0.66415381     0.41700
H1823       H  0.13395623  0.76412238  0.62839966     0.45100
H1824       H  0.19712762  0.67814470  0.66370817     0.36600
C1825       C  0.20919676  0.80364304  0.78459464    -0.27700
C1826       C  0.21565841  0.80268665  0.80709598     0.01900
C1827       C  0.22335185  0.78229287  0.81602805     0.30000
C1828       C  0.22512714  0.76341670  0.80234032    -0.19500
C1829       C  0.21917650  0.76443646  0.77972313    -0.28900
C1830       C  0.21083815  0.78467524  0.77091046     0.44100
C1831       C  0.21619886  0.82344376  0.82058467     0.05200
O1832       O  0.22872785  0.78063290  0.83824571    -0.57400
H1833       H  0.23122931  0.74789362  0.80945509     0.18200
O1834       O  0.20570342  0.78649595  0.74866901    -0.64100
H1835       H  0.20357894  0.81933166  0.77744712     0.16600
C1836       C  0.23663695  0.83160304  0.82856554     0.28900
C1837       C  0.23732389  0.85161388  0.84049668    -0.25000
C1838       C  0.21781129  0.86409763  0.84486116    -0.24300
C1839       C  0.19721418  0.85571666  0.83700586     0.40300
C1840       C  0.19656578  0.83557273  0.82489591    -0.26700
O1841       O  0.25623849  0.82073696  0.82365142    -0.58600
H1842       H  0.25349801  0.85740671  0.84608423     0.16000
O1843       O  0.17765871  0.86695396  0.84095038    -0.60000
H1844       H  0.18070494  0.82941956  0.81879284     0.14400
H1845       H  0.18919328  0.78571926  0.74793343     0.46300
H1846       H  0.26199990  0.81510828  0.83813760     0.41700
H1847       H  0.17539773  0.87658982  0.82765724     0.45100
H1848       H  0.24492861  0.77719857  0.83871927     0.36600
C1849       C  0.28930824  0.66800821  0.74991692    -0.27700
C1850       C  0.30722812  0.67784267  0.76129390     0.01900
C1851       C  0.30422745  0.69868396  0.77161375     0.30000
C1852       C  0.28369406  0.70977463  0.76990673    -0.19500
C1853       C  0.26571013  0.70028531  0.75808728    -0.28900
C1854       C  0.26860205  0.67887478  0.74849261     0.44100
C1855       C  0.32939281  0.66691981  0.76093813     0.05200
O1856       O  0.32165995  0.70888932  0.78235976    -0.57400
H1857       H  0.28210361  0.72614369  0.77746597     0.18200
O1858       O  0.25147061  0.66843773  0.73749887    -0.64100
H1859       H  0.29145441  0.65187012  0.74197868     0.16600
C1860       C  0.33879914  0.65733936  0.78022966     0.28900
C1861       C  0.35948837  0.64634816  0.77902743    -0.25000
C1862       C  0.37112571  0.64479515  0.75867134    -0.24300
C1863       C  0.36199375  0.65554426  0.73962222     0.40300
C1864       C  0.34121573  0.66610693  0.74084273    -0.26700
O1865       O  0.32770011  0.65826827  0.80022027    -0.58600
H1866       H  0.36607274  0.63849157  0.79394059     0.16000
O1867       O  0.37299670  0.65567971  0.71954839    -0.60000
H1868       H  0.33428583  0.67379654  0.72597931     0.14400
H1869       H  0.24351944  0.65973736  0.74914726     0.46300
H1870       H  0.31830556  0.64462903  0.80060799     0.41700
H1871       H  0.38319476  0.66870935  0.72027634     0.45100
H1872       H  0.31930648  0.70569905  0.79843233     0.36600
C1873       C  0.69013805  0.16904027  0.73289192    -0.27700
C1874       C  0.67448236  0.17311814  0.71602491     0.01900
C1875       C  0.67912558  0.18936477  0.69969752     0.30000
C1876       C  0.69887784  0.20190971  0.70095421    -0.19500
C1877       C  0.71436012  0.19840298  0.71833362    -0.28900
C1878       C  0.70993716  0.18127384  0.73408874     0.44100
C1879       C  0.65269208  0.16149937  0.71707317     0.05200
O1880       O  0.66379994  0.19412065  0.68335875    -0.57400
H1881       H  0.70171940  0.21482094  0.68858508     0.18200
O1882       O  0.72430101  0.17681981  0.75135491    -0.64100
H1883       H  0.68675575  0.15651693  0.74554472     0.16600
C1884       C  0.64554589  0.14675511  0.70022089     0.28900
C1885       C  0.62553602  0.13480584  0.70282304    -0.25000
C1886       C  0.61256682  0.13717447  0.72226991    -0.24300
C1887       C  0.61953999  0.15258757  0.73872251     0.40300
C1888       C  0.63943708  0.16438741  0.73609187    -0.26700
O1889       O  0.65830417  0.14336276  0.68152225    -0.58600
H1890       H  0.62060812  0.12306986  0.68998595     0.16000
O1891       O  0.60716161  0.15621620  0.75761966    -0.60000
H1892       H  0.64467551  0.17579440  0.74912096     0.14400
H1893       H  0.73408353  0.16461326  0.74586748     0.46300
H1894       H  0.67011986  0.13269139  0.68616766     0.41700
H1895       H  0.59610864  0.16784821  0.75341719     0.45100
H1896       H  0.66978402  0.18709319  0.66962081     0.36600
C1897       C  0.80832853  0.23592176  0.78712996    -0.27700
C1898       C  0.80495360  0.21743704  0.80116189     0.01900
C1899       C  0.78966553  0.20084483  0.79483099     0.30000
C1900       C  0.77761857  0.20316348  0.77493231    -0.19500
C1901       C  0.78047678  0.22198556  0.76101441    -0.28900
C1902       C  0.79634637  0.23830667  0.76723187     0.44100
C1903       C  0.81582725  0.21705040  0.82332742     0.05200
O1904       O  0.78518988  0.18317848  0.80876485    -0.57400
H1905       H  0.76556117  0.19036749  0.77076633     0.18200
O1906       O  0.79951826  0.25726335  0.75472123    -0.64100
H1907       H  0.81995456  0.24891798  0.79195173     0.16600
C1908       C  0.83021402  0.19961408  0.82999918     0.28900
C1909       C  0.84088538  0.20059044  0.85083744    -0.25000
C1910       C  0.83760987  0.21901016  0.86504414    -0.24300
C1911       C  0.82258057  0.23602219  0.85850710     0.40300
C1912       C  0.81199576  0.23497977  0.83782959    -0.26700
O1913       O  0.83447825  0.18196395  0.81603315    -0.58600
H1914       H  0.85238628  0.18737811  0.85548017     0.16000
O1915       O  0.81817312  0.25392129  0.87211723    -0.60000
H1916       H  0.80073516  0.24835212  0.83302085     0.14400
H1917       H  0.81277604  0.25407424  0.74533056     0.46300
H1918       H  0.84790822  0.18638781  0.80742843     0.41700
H1919       H  0.80595686  0.24887133  0.88208041     0.45100
H1920       H  0.79221707  0.17000014  0.80160682     0.36600
C1921       C  0.74217219  0.29399709  0.67013920    -0.27700
C1922       C  0.76265990  0.30529048  0.67003135     0.01900
C1923       C  0.78088132  0.29605979  0.68158219     0.30000
C1924       C  0.77821192  0.27618963  0.69375375    -0.19500
C1925       C  0.75750628  0.26504732  0.69441121    -0.28900
C1926       C  0.73947998  0.27404810  0.68209503     0.44100
C1927       C  0.76412036  0.32744162  0.65905861     0.05200
O1928       O  0.80097080  0.30700694  0.68211731    -0.57400
H1929       H  0.79235009  0.26969991  0.70300137     0.18200
O1930       O  0.71892416  0.26399189  0.68215602    -0.64100
H1931       H  0.72801869  0.30098289  0.66126332     0.16600
C1932       C  0.77687788  0.33078932  0.63958950     0.28900
C1933       C  0.77609744  0.35148024  0.62846858    -0.25000
C1934       C  0.76231068  0.36876811  0.63635380    -0.24300
C1935       C  0.75025980  0.36561904  0.65628705     0.40300
C1936       C  0.75131634  0.34513023  0.66752853    -0.26700
O1937       O  0.78931447  0.31367046  0.63077661    -0.58600
H1938       H  0.78523004  0.35357239  0.61299879     0.16000
O1939       O  0.73741880  0.38256280  0.66489846    -0.60000
H1940       H  0.74162557  0.34282696  0.68263167     0.14400
H1941       H  0.71077016  0.27083259  0.69485146     0.46300
H1942       H  0.77887495  0.30526977  0.62107074     0.41700
H1943       H  0.72177719  0.37834355  0.66157220     0.45100
H1944       H  0.81040239  0.29932115  0.67089019     0.36600
C1945       C  0.66568425  0.23391775  0.13880814    -0.27700
C1946       C  0.65961938  0.21751437  0.15432940     0.01900
C1947       C  0.64331004  0.20161043  0.14861130     0.30000
C1948       C  0.63268192  0.20281227  0.12776440    -0.19500
C1949       C  0.63821878  0.21977325  0.11246922    -0.28900
C1950       C  0.65533112  0.23501538  0.11797900     0.44100
C1951       C  0.67069924  0.21739459  0.17634494     0.05200
O1952       O  0.63679723  0.18568215  0.16375643    -0.57400
H1953       H  0.61949396  0.19104545  0.12395200     0.18200
O1954       O  0.66192857  0.25127515  0.10322671    -0.64100
H1955       H  0.67852672  0.24598008  0.14291009     0.16600
C1956       C  0.68568071  0.20028658  0.18214786     0.28900
C1957       C  0.69789496  0.20172283  0.20197635    -0.25000
C1958       C  0.69569991  0.22031006  0.21625856    -0.24300
C1959       C  0.68008204  0.23717360  0.21061847     0.40300
C1960       C  0.66788775  0.23565248  0.19073416    -0.26700
O1961       O  0.68917803  0.18252821  0.16810076    -0.58600
H1962       H  0.70959558  0.18843851  0.20581036     0.16000
O1963       O  0.67738643  0.25579621  0.22368309    -0.60000
H1964       H  0.65652641  0.24905154  0.18625377     0.14400
H1965       H  0.67369709  0.24417626  0.09398612     0.46300
H1966       H  0.70106831  0.18750559  0.15770745     0.41700
H1967       H  0.66447186  0.25238362  0.23347736     0.45100
H1968       H  0.64459058  0.17181069  0.15917678     0.36600
C1969       C  0.78485278  0.16302029  0.24557166    -0.27700
C1970       C  0.80312987  0.17047409  0.25808290     0.01900
C1971       C  0.80167404  0.19076940  0.26970521     0.30000
C1972       C  0.78206676  0.20345909  0.26871039    -0.19500
C1973       C  0.76363570  0.19622353  0.25607516    -0.28900
C1974       C  0.76516587  0.17565098  0.24454416     0.44100
C1975       C  0.82419892  0.15771451  0.25768160     0.05200
O1976       O  0.81965270  0.19872015  0.28140493    -0.57400
H1977       H  0.78152338  0.21926318  0.27750606     0.18200
O1978       O  0.74767065  0.16773755  0.23210378    -0.64100
H1979       H  0.78595675  0.14744392  0.23640486     0.16600
C1980       C  0.82930985  0.14181547  0.27424458     0.28900
C1981       C  0.84921287  0.12945107  0.27293959    -0.25000
C1982       C  0.86406103  0.13266060  0.25504954    -0.24300
C1983       C  0.85911745  0.14933032  0.23896871     0.40300
C1984       C  0.83927496  0.16151903  0.24031431    -0.26700
O1985       O  0.81486030  0.13812129  0.29160509    -0.58600
H1986       H  0.85261399  0.11680598  0.28545599     0.16000
O1987       O  0.87344125  0.15373891  0.22165257    -0.60000
H1988       H  0.83555695  0.17394176  0.22764781     0.14400
H1989       H  0.73807417  0.15954178  0.24283505     0.46300
H1990       H  0.80395881  0.12704703  0.28589830     0.41700
H1991       H  0.88386034  0.16521852  0.22745947     0.45100
H1992       H  0.81748205  0.19328094  0.29688370     0.36600
C1993       C  0.73173954  0.27978127  0.31826387    -0.27700
C1994       C  0.71639537  0.29684748  0.31370176     0.01900
C1995       C  0.70167852  0.29460075  0.29562354     0.30000
C1996       C  0.70310574  0.27583650  0.28170397    -0.19500
C1997       C  0.71917947  0.25903027  0.28554426    -0.28900
C1998       C  0.73319935  0.26095467  0.30448415     0.44100
C1999       C  0.71789596  0.31805477  0.32617131     0.05200
O2000       O  0.68685391  0.31136056  0.29058285    -0.57400
H2001       H  0.69208550  0.27491851  0.26741329     0.18200
O2002       O  0.74851783  0.24468819  0.30970102    -0.64100
H2003       H  0.74313511  0.28140279  0.33221541     0.16600
C2004       C  0.70227528  0.32395621  0.34265901     0.28900
C2005       C  0.70472225  0.34411577  0.35442780    -0.25000
C2006       C  0.72277256  0.35846810  0.34998929    -0.24300
C2007       C  0.73821105  0.35246971  0.33315364     0.40300
C2008       C  0.73561544  0.33247339  0.32142742    -0.26700
O2009       O  0.68519527  0.30968672  0.34801344    -0.58600
H2010       H  0.69287779  0.34818517  0.36747086     0.16000
O2011       O  0.75559969  0.36631162  0.32757670    -0.60000
H2012       H  0.74759827  0.32812684  0.30857919     0.14400
H2013       H  0.76304474  0.25047781  0.30424908     0.46300
H2014       H  0.67189425  0.31578204  0.34027011     0.41700
H2015       H  0.76916906  0.35892547  0.33360273     0.45100
H2016       H  0.67259933  0.30674308  0.29758013     0.36600
C2017       C  0.28423619  0.27578113  0.17334242    -0.27700
C2018       C  0.29870781  0.25873166  0.16653715     0.01900
C2019       C  0.30076689  0.23931969  0.17965237     0.30000
C2020       C  0.28820019  0.23706786  0.19921896    -0.19500
C2021       C  0.27313458  0.25386910  0.20591561    -0.28900
C2022       C  0.27134395  0.27343438  0.19270126     0.44100
C2023       C  0.31099385  0.26095264  0.14528018     0.05200
O2024       O  0.31545387  0.22271956  0.17371870    -0.57400
H2025       H  0.29009508  0.22191220  0.20896865     0.18200
O2026       O  0.25742028  0.29061127  0.19867910    -0.64100
H2027       H  0.28259370  0.29081224  0.16334200     0.16600
C2028       C  0.30640441  0.24643313  0.12746423     0.28900
C2029       C  0.31907348  0.24761405  0.10797195    -0.25000
C2030       C  0.33643822  0.26327708  0.10574419    -0.24300
C2031       C  0.34032411  0.27856366  0.12322286     0.40300
C2032       C  0.32751265  0.27739184  0.14280061    -0.26700
O2033       O  0.28985808  0.23068380  0.12913901    -0.58600
H2034       H  0.31559468  0.23582832  0.09469782     0.16000
O2035       O  0.35719034  0.29397694  0.12183197    -0.60000
H2036       H  0.33100419  0.28879759  0.15639142     0.14400
H2037       H  0.24410868  0.28899811  0.18897029     0.46300
H2038       H  0.27586785  0.23871542  0.12533714     0.41700
H2039       H  0.37059917  0.28623635  0.12775787     0.45100
H2040       H  0.30608336  0.21044319  0.16774956     0.36600
C2041       C  0.27974769  0.14775188  0.33051113    -0.27700
C2042       C  0.26116545  0.15505444  0.31828596     0.01900
C2043       C  0.24118126  0.14296023  0.31935207     0.30000
C2044       C  0.24004947  0.12341423  0.33197633    -0.19500
C2045       C  0.25871796  0.11543745  0.34389882    -0.28900
C2046       C  0.27868426  0.12802270  0.34325633     0.44100
C2047       C  0.26243627  0.17494268  0.30380773     0.05200
O2048       O  0.22273677  0.14990432  0.30765112    -0.57400
H2049       H  0.22442919  0.11433925  0.33205811     0.18200
O2050       O  0.29708055  0.12150319  0.35523380    -0.64100
H2051       H  0.29515413  0.15719527  0.32992318     0.16600
C2052       C  0.25829392  0.19639457  0.31242830     0.28900
C2053       C  0.25567703  0.21454706  0.29786528    -0.25000
C2054       C  0.25731851  0.21155029  0.27467585    -0.24300
C2055       C  0.26232390  0.19016979  0.26614756     0.40300
C2056       C  0.26463883  0.17201044  0.28071397    -0.26700
O2057       O  0.25604777  0.19960580  0.33497807    -0.58600
H2058       H  0.25191771  0.23091441  0.30465650     0.16000
O2059       O  0.26313970  0.18649780  0.24356687    -0.60000
H2060       H  0.26731440  0.15542341  0.27393612     0.14400
H2061       H  0.30666318  0.11337861  0.34444655     0.46300
H2062       H  0.24004417  0.19687266  0.33819435     0.41700
H2063       H  0.27922142  0.18685685  0.23968556     0.45100
H2064       H  0.21465441  0.16010961  0.31789938     0.36600
C2065       C  0.18320000  0.30443671  0.24310899    -0.27700
C2066       C  0.16697441  0.29654454  0.25796195     0.01900
C2067       C  0.17146771  0.27744372  0.27087906     0.30000
C2068       C  0.19176497  0.26601875  0.26820439    -0.19500
C2069       C  0.20794667  0.27355217  0.25284704    -0.28900
C2070       C  0.20359023  0.29334618  0.24066373     0.44100
C2071       C  0.14511265  0.30800830  0.25869556     0.05200
O2072       O  0.15569185  0.26918891  0.28526951    -0.57400
H2073       H  0.19454488  0.25091123  0.27781500     0.18200
O2074       O  0.21896291  0.30200961  0.22611320    -0.64100
H2075       H  0.17994844  0.31928567  0.23322243     0.16600
C2076       C  0.13873860  0.32129564  0.27699655     0.28900
C2077       C  0.11941156  0.33457078  0.27570118    -0.25000
C2078       C  0.10639763  0.33491207  0.25615074    -0.24300
C2079       C  0.11221688  0.32044585  0.23842192     0.40300
C2080       C  0.13149554  0.30736070  0.23973858    -0.26700
O2081       O  0.15176300  0.32214086  0.29579741    -0.58600
H2082       H  0.11524470  0.34541530  0.28956279     0.16000
O2083       O  0.09949730  0.31932326  0.21942501    -0.60000
H2084       H  0.13617547  0.29704037  0.22562640     0.14400
H2085       H  0.22874192  0.31163296  0.23536607     0.46300
H2086       H  0.16349433  0.33334112  0.29244421     0.41700
H2087       H  0.08762906  0.30828609  0.22283471     0.45100
H2088       H  0.16028159  0.27449159  0.30025108     0.36600
C2089       C  0.73510605  0.69545925  0.16544961    -0.27700
C2090       C  0.71485725  0.68426477  0.16193977     0.01900
C2091       C  0.69566031  0.69191449  0.17337744     0.30000
C2092       C  0.69711742  0.71002479  0.18824175    -0.19500
C2093       C  0.71741236  0.72129371  0.19154277    -0.28900
C2094       C  0.73647594  0.71383457  0.17972789     0.44100
C2095       C  0.71462500  0.66383615  0.14757594     0.05200
O2096       O  0.67534712  0.68190261  0.17013684    -0.57400
H2097       H  0.68222150  0.71547693  0.19693268     0.18200
O2098       O  0.75681061  0.72402135  0.18226110    -0.64100
H2099       H  0.75027834  0.68957859  0.15757896     0.16600
C2100       C  0.72658556  0.66295089  0.12722328     0.28900
C2101       C  0.72880894  0.64260946  0.11576560    -0.25000
C2102       C  0.71870760  0.62310361  0.12388288    -0.24300
C2103       C  0.70568825  0.62420810  0.14338625     0.40300
C2104       C  0.70400361  0.64430962  0.15521970    -0.26700
O2105       O  0.73565809  0.68198817  0.11814959    -0.58600
H2106       H  0.73842148  0.64209061  0.10044816     0.16000
O2107       O  0.69529023  0.60549084  0.15157062    -0.60000
H2108       H  0.69507600  0.64431439  0.17092740     0.14400
H2109       H  0.76403867  0.71619825  0.19496954     0.46300
H2110       H  0.75204402  0.67956793  0.11813590     0.41700
H2111       H  0.70668961  0.59781939  0.16083178     0.45100
H2112       H  0.66893150  0.68936639  0.15681092     0.36600
C2113       C  0.77881427  0.82150480  0.22459570    -0.27700
C2114       C  0.79791218  0.81272511  0.21411298     0.01900
C2115       C  0.79682822  0.79132653  0.20443127     0.30000
C2116       C  0.77708080  0.77897410  0.20568688    -0.19500
C2117       C  0.75813597  0.78740063  0.21673689    -0.28900
C2118       C  0.75906010  0.80905474  0.22596260     0.44100
C2119       C  0.81939681  0.82499487  0.21543145     0.05200
O2120       O  0.81550901  0.78156691  0.19539752    -0.57400
H2121       H  0.77700641  0.76227519  0.19872338     0.18200
O2122       O  0.74094812  0.81812320  0.23663077    -0.64100
H2123       H  0.77936128  0.83795994  0.23213226     0.16600
C2124       C  0.83286783  0.82873780  0.19649914     0.28900
C2125       C  0.85385073  0.83875711  0.19884102    -0.25000
C2126       C  0.86166619  0.84565758  0.21988491    -0.24300
C2127       C  0.84768438  0.84259252  0.23868730     0.40300
C2128       C  0.82687736  0.83237336  0.23630517    -0.26700
O2129       O  0.82569243  0.82278165  0.17560439    -0.58600
H2130       H  0.86399933  0.84111114  0.18406326     0.16000
O2131       O  0.85386013  0.84986817  0.25948762    -0.60000
H2132       H  0.81668995  0.82979638  0.25103050     0.14400
H2133       H  0.73252336  0.82617719  0.22484276     0.46300
H2134       H  0.81554714  0.83500666  0.17083299     0.41700
H2135       H  0.85948433  0.83637680  0.26733563     0.45100
H2136       H  0.81229285  0.77993092  0.17923884     0.36600
C2137       C  0.67880665  0.78172684  0.29276158    -0.27700
C2138       C  0.66673236  0.76285132  0.29966206     0.01900
C2139       C  0.66628345  0.74395820  0.28556451     0.30000
C2140       C  0.67869037  0.74373922  0.26566952    -0.19500
C2141       C  0.69184728  0.76213847  0.25930703    -0.28900
C2142       C  0.69131651  0.78149770  0.27291358     0.44100
C2143       C  0.65545645  0.76263284  0.32193681     0.05200
O2144       O  0.65321666  0.72584912  0.29083038    -0.57400
H2145       H  0.67833426  0.72880029  0.25547097     0.18200
O2146       O  0.70271034  0.80045167  0.26691867    -0.64100
H2147       H  0.67909497  0.79654595  0.30314569     0.16600
C2148       C  0.65958677  0.74517773  0.33720701     0.28900
C2149       C  0.64810762  0.74430240  0.35748548    -0.25000
C2150       C  0.63278771  0.76106257  0.36363930    -0.24300
C2151       C  0.62963832  0.77935434  0.34901002     0.40300
C2152       C  0.64087856  0.77999387  0.32833697    -0.26700
O2153       O  0.67507693  0.72890559  0.33262267    -0.58600
H2154       H  0.65141224  0.73034556  0.36856198     0.16000
O2155       O  0.61537511  0.79645367  0.35446302    -0.60000
H2156       H  0.63784474  0.79386552  0.31708170     0.14400
H2157       H  0.71647834  0.80032521  0.27611848     0.46300
H2158       H  0.68964252  0.73544977  0.33695043     0.41700
H2159       H  0.60063179  0.79187941  0.34852511     0.45100
H2160       H  0.66366323  0.71312006  0.29289729     0.36600
C2161       C  0.27381252  0.80003401  0.19130545    -0.27700
C2162       C  0.26488683  0.80066119  0.16969849     0.01900
C2163       C  0.25564846  0.78110092  0.16060111     0.30000
C2164       C  0.25434230  0.76155489  0.17349433    -0.19500
C2165       C  0.26229030  0.76104824  0.19560838    -0.28900
C2166       C  0.27271750  0.78044486  0.20421495     0.44100
C2167       C  0.26266184  0.82231535  0.15781874     0.05200
O2168       O  0.24737249  0.78109585  0.13925623    -0.57400
H2169       H  0.24661790  0.74687733  0.16627911     0.18200
O2170       O  0.28113046  0.78082278  0.22549887    -0.64100
H2171       H  0.28092019  0.81504096  0.19849120     0.16600
C2172       C  0.24367231  0.83567547  0.16134636     0.28900
C2173       C  0.24063676  0.85539154  0.14908778    -0.25000
C2174       C  0.25656517  0.86245062  0.13333738    -0.24300
C2175       C  0.27594630  0.84925095  0.13023170     0.40300
C2176       C  0.27882445  0.82931752  0.14240309    -0.26700
O2177       O  0.22761901  0.82921636  0.17633949    -0.58600
H2178       H  0.22567690  0.86518315  0.15193408     0.16000
O2179       O  0.29189891  0.85528493  0.11496718    -0.60000
H2180       H  0.29351432  0.81912600  0.13954668     0.14400
H2181       H  0.26865946  0.78610783  0.23500804     0.46300
H2182       H  0.23280327  0.83494561  0.19097415     0.41700
H2183       H  0.28729636  0.84808629  0.10079538     0.45100
H2184       H  0.23154450  0.78569503  0.14071682     0.36600
C2185       C  0.19458794  0.66139529  0.22107132    -0.27700
C2186       C  0.17596671  0.67091817  0.21045714     0.01900
C2187       C  0.17811218  0.69201472  0.20022300     0.30000
C2188       C  0.19832865  0.70372480  0.20173830    -0.19500
C2189       C  0.21657939  0.69477102  0.21354232    -0.28900
C2190       C  0.21474094  0.67303965  0.22260349     0.44100
C2191       C  0.15398800  0.65968832  0.21252057     0.05200
O2192       O  0.16001104  0.70216508  0.19048107    -0.57400
H2193       H  0.19925475  0.72039478  0.19469522     0.18200
O2194       O  0.23227668  0.66323013  0.23362565    -0.64100
H2195       H  0.19326190  0.64506980  0.22884561     0.16600
C2196       C  0.14079886  0.65425137  0.19385265     0.28900
C2197       C  0.12026145  0.64337251  0.19678310    -0.25000
C2198       C  0.11261432  0.63748451  0.21822977    -0.24300
C2199       C  0.12594665  0.64321448  0.23689927     0.40300
C2200       C  0.14630672  0.65408916  0.23387536    -0.26700
O2201       O  0.14803099  0.65901017  0.17266653    -0.58600
H2202       H  0.11050998  0.63923936  0.18214451     0.16000
O2203       O  0.11970693  0.63779426  0.25825781    -0.60000
H2204       H  0.15621755  0.65821514  0.24843071     0.14400
H2205       H  0.24136827  0.65603135  0.22180092     0.46300
H2206       H  0.15642529  0.64554209  0.16784971     0.41700
H2207       H  0.11203804  0.65129544  0.26407753     0.45100
H2208       H  0.16320677  0.70220364  0.17423864     0.36600
C2209       C  0.28298312  0.70048079  0.30082508    -0.27700
C2210       C  0.30207514  0.71352953  0.30431775     0.01900
C2211       C  0.30993814  0.72721330  0.28689447     0.30000
C2212       C  0.29829935  0.72841660  0.26667460    -0.19500
C2213       C  0.27857824  0.71617238  0.26330659    -0.28900
C2214       C  0.27116742  0.70175751  0.28060446     0.44100
C2215       C  0.31286304  0.71427939  0.32661274     0.05200
O2216       O  0.32924970  0.73926189  0.28944771    -0.57400
H2217       H  0.30469939  0.73926479  0.25368068     0.18200
O2218       O  0.25219942  0.68917102  0.27824154    -0.64100
H2219       H  0.27676124  0.68987021  0.31411102     0.16600
C2220       C  0.31355803  0.73452065  0.33845930     0.28900
C2221       C  0.32540516  0.73594420  0.35843425    -0.25000
C2222       C  0.33676444  0.71730979  0.36736069    -0.24300
C2223       C  0.33510478  0.69663608  0.35601151     0.40300
C2224       C  0.32310497  0.69524002  0.33584206    -0.26700
O2225       O  0.30297412  0.75323453  0.33041393    -0.58600
H2226       H  0.32583908  0.75198450  0.36679810     0.16000
O2227       O  0.34543984  0.67783101  0.36410222    -0.60000
H2228       H  0.32242089  0.67945032  0.32702004     0.14400
H2229       H  0.23998385  0.69852486  0.28441721     0.46300
H2230       H  0.28730561  0.75191670  0.33557974     0.41700
H2231       H  0.36047649  0.67782944  0.35719228     0.45100
H2232       H  0.32451934  0.75514560  0.29031917     0.36600
C2233       C  0.82152185  0.75853613  0.70058802    -0.27700
C2234       C  0.81280761  0.76909565  0.68160888     0.01900
C2235       C  0.79185770  0.77962234  0.68288260     0.30000
C2236       C  0.77938904  0.77849388  0.70267577    -0.19500
C2237       C  0.78755002  0.76689024  0.72146863    -0.28900
C2238       C  0.80925113  0.75755786  0.72044047     0.44100
C2239       C  0.82444894  0.76643272  0.65998788     0.05200
O2240       O  0.78271998  0.78957295  0.66437696    -0.57400
H2241       H  0.76285648  0.78584412  0.70290617     0.18200
O2242       O  0.81842388  0.74674592  0.73844782    -0.64100
H2243       H  0.83768286  0.75040623  0.69978330     0.16600
C2244       C  0.83520812  0.78435718  0.64925312     0.28900
C2245       C  0.84636695  0.78083577  0.62891755    -0.25000
C2246       C  0.84703750  0.75945985  0.61902782    -0.24300
C2247       C  0.83575489  0.74166354  0.62985713     0.40300
C2248       C  0.82485848  0.74525066  0.65014547    -0.26700
O2249       O  0.83513607  0.80526944  0.65861733    -0.58600
H2250       H  0.85481664  0.79480686  0.62111072     0.16000
O2251       O  0.83525545  0.72055481  0.62094358    -0.60000
H2252       H  0.81651039  0.73135769  0.65823646     0.14400
H2253       H  0.82643566  0.75851768  0.74689019     0.46300
H2254       H  0.84813746  0.80543177  0.66886565     0.41700
H2255       H  0.82197039  0.72037679  0.61105505     0.45100
H2256       H  0.78694123  0.80555250  0.66547447     0.36600
C2257       C  0.76113162  0.69948195  0.82048342    -0.27700
C2258       C  0.77094197  0.68072853  0.81040915     0.01900
C2259       C  0.78011090  0.68268425  0.78893664     0.30000
C2260       C  0.77839892  0.70292036  0.77731074    -0.19500
C2261       C  0.76734671  0.72142700  0.78674880    -0.28900
C2262       C  0.75934307  0.71977821  0.80884321     0.44100
C2263       C  0.76889396  0.65857687  0.82111403     0.05200
O2264       O  0.78962492  0.66452161  0.77868656    -0.57400
H2265       H  0.78478118  0.70374122  0.76041077     0.18200
O2266       O  0.74927652  0.73767141  0.81902358    -0.64100
H2267       H  0.75407459  0.69810935  0.83708089     0.16600
C2268       C  0.78423459  0.65108510  0.83723049     0.28900
C2269       C  0.78117410  0.63020855  0.84752141    -0.25000
C2270       C  0.76265288  0.61680494  0.84215429    -0.24300
C2271       C  0.74773864  0.62417149  0.82545086     0.40300
C2272       C  0.75092828  0.64489861  0.81513464    -0.26700
O2273       O  0.80222998  0.66399823  0.84295902    -0.58600
H2274       H  0.79289781  0.62483433  0.86021629     0.16000
O2275       O  0.72993604  0.61128264  0.81907432    -0.60000
H2276       H  0.73917939  0.65046259  0.80253432     0.14400
H2277       H  0.76166209  0.74632604  0.82578552     0.46300
H2278       H  0.79704201  0.67327472  0.85566469     0.41700
H2279       H  0.73594174  0.60098412  0.80756592     0.45100
H2280       H  0.80541304  0.66452680  0.78362697     0.36600
C2281       C  0.68117292  0.79043519  0.77946593    -0.27700
C2282       C  0.67631828  0.80669344  0.76326951     0.01900
C2283       C  0.69250739  0.81168755  0.74698888     0.30000
C2284       C  0.71291305  0.80019076  0.74676867    -0.19500
C2285       C  0.71771325  0.78335953  0.76253607    -0.28900
C2286       C  0.70151618  0.77869497  0.77914432     0.44100
C2287       C  0.65422828  0.81814135  0.76314667     0.05200
O2288       O  0.68879783  0.82837893  0.73166664    -0.57400
H2289       H  0.72493942  0.80447600  0.73396969     0.18200
O2290       O  0.70528528  0.76280407  0.79523909    -0.64100
H2291       H  0.66892175  0.78648435  0.79217226     0.16600
C2292       C  0.64031609  0.81705011  0.74426056     0.28900
C2293       C  0.62034736  0.82915919  0.74363893    -0.25000
C2294       C  0.61348101  0.84240409  0.76181205    -0.24300
C2295       C  0.62696738  0.84271113  0.78116601     0.40300
C2296       C  0.64709558  0.83056154  0.78173392    -0.26700
O2297       O  0.64615438  0.80426872  0.72617693    -0.58600
H2298       H  0.61023806  0.82822236  0.72867915     0.16000
O2299       O  0.62106545  0.85527329  0.79936736    -0.60000
H2300       H  0.65750943  0.83139286  0.79648990     0.14400
H2301       H  0.69815853  0.74899106  0.78952062     0.46300
H2302       H  0.64112285  0.78891245  0.72987897     0.41700
H2303       H  0.62799000  0.87011990  0.79685087     0.45100
H2304       H  0.68731136  0.82072706  0.71705419     0.36600
loop_ 
_geom_bond_atom_site_label_1 
_geom_bond_atom_site_label_2 
_geom_bond_distance 
_geom_bond_site_symmetry_2 
_ccdc_geom_bond_type 
C1            N2   1.357       .  A
C1            N6   1.360       .  A
C1         C2237   1.491       .  S
N2            C3   1.357       .  A
C3            N4   1.361       .  A
C3         C2261   1.484       .  S
N4            C5   1.362       .  A
C5            N6   1.363       .  A
C5         C2285   1.498       .  S
C7            N8   1.360       .  A
C7           N12   1.359       .  A
C7         C2189   1.486       .  S
N8            C9   1.361       .  A
C9           N10   1.361       .  A
C9         C2165   1.493       .  S
N10          C11   1.362       .  A
C11          N12   1.357       .  A
C11        C2213   1.493       .  S
C13          N14   1.353       .  A
C13          N18   1.359       .  A
C13        C2117   1.484       .  S
N14          C15   1.354       .  A
C15          N16   1.364       .  A
C15        C2093   1.490       .  S
N16          C17   1.368       .  A
C17          N18   1.363       .  A
C17        C2141   1.498       .  S
C19          N20   1.359       .  A
C19          N24   1.359       .  A
C19        C2021   1.490       .  S
N20          C21   1.360       .  A
C21          N22   1.359       .  A
C21        C2069   1.489       .  S
N22          C23   1.358       .  A
C23          N24   1.357       .  A
C23        C2054   1.474       .  S
C25          N26   1.358       .  A
C25          N30   1.361       .  A
C25        C1997   1.491       .  S
N26          C27   1.357       .  A
C27          N28   1.356       .  A
C27        C1973   1.486       .  S
N28          C29   1.359       .  A
C29          N30   1.361       .  A
C29        C1958   1.489       .  S
C31          N32   1.357       .  A
C31          N36   1.361       .  A
C31        C1877   1.493       .  S
N32          C33   1.356       .  A
C33          N34   1.358       .  A
C33        C1901   1.490       .  S
N34          C35   1.360       .  A
C35          N36   1.362       .  A
C35        C1925   1.489       .  S
C37          N38   1.357       .  A
C37          N42   1.357       .  A
C37        C1829   1.478       .  S
N38          C39   1.359       .  A
C39          N40   1.361       .  A
C39        C1853   1.491       .  S
N40          C41   1.361       .  A
C41          N42   1.360       .  A
C41        C1805   1.483       .  S
O43         Mg45   2.124   1_545  S
O43         Mg51   2.134   1_554  S
O43          C78   1.236       .  S
C44          O57   1.238   1_655  S
C44          O81   1.273       .  A
C44          H83   1.081       .  S
Mg45         O74   2.141       .  S
Mg45         O89   2.300   1_554  S
Mg45         O85   2.224       .  S
Mg45         O56   2.297   1_565  S
O46         Mg88   2.141       .  S
O46         Mg71   2.111   1_655  S
O46          C67   1.236   1_655  S
O47          C78   1.270       .  A
O47         Mg71   2.299       .  S
C48        C1757   1.493       .  S
C48          O50   1.276   1_655  A
C48          O62   1.273       .  A
O49          C77   1.275       .  A
O49         Mg51   2.315   1_565  S
O50         Mg82   2.303       .  S
Mg51         O57   2.149       .  S
Mg51         O65   2.285       .  S
Mg51         O53   2.326       .  S
C52        C1790   1.473       .  S
C52          O90   1.269       .  A
C52          O58   1.276       .  A
O53          C60   1.276       .  A
H54          C67   1.081       .  S
C55          O69   1.239   1_565  S
C55          O70   1.274       .  A
C55          H80   1.081       .  S
O56          C79   1.269       .  A
O57         Mg71   2.141   1_556  S
O58         Mg88   2.324       .  S
C59        C1718   1.492       .  S
C59          O72   1.275   1_556  A
C59          O64   1.273       .  A
C60        C1742   1.474       .  S
C60          O87   1.268       .  A
Mg61         O68   2.119   1_645  S
Mg61         O69   2.142       .  S
Mg61         O62   2.280   1_545  S
Mg61         O63   2.289   1_655  S
Mg61         O90   2.223       .  S
O63          C67   1.269       .  A
O64         Mg71   2.288   1_656  S
O65          C84   1.273   1_545  A
O66          C86   1.280       .  A
O66         Mg82   2.352       .  S
O68         Mg82   2.137       .  S
O68          C79   1.235   1_565  S
O69         Mg88   2.153       .  S
O70         Mg82   2.310   1_655  S
Mg71         O87   2.225   1_554  S
O72         Mg88   2.289       .  S
H73          C78   1.081       .  S
O74         Mg82   2.163       .  S
O74          C77   1.239   1_554  S
H75          C77   1.081       .  S
H76          C79   1.081       .  S
O81         Mg88   2.306   1_556  S
C84        C1661   1.489       .  S
C84          O89   1.274       .  A
O85          C86   1.269       .  A
C86        C1694   1.480       .  S
C91          N92   1.362       .  A
C91          N96   1.368       .  A
C91        C1637   1.499       .  S
N92          C93   1.357       .  A
C93          N94   1.350       .  A
C93        C1733   1.485       .  S
N94          C95   1.352       .  A
C95          N96   1.365       .  A
C95        C1622   1.492       .  S
C97          N98   1.368       .  A
C97         N102   1.362       .  A
C97        C1589   1.500       .  S
N98          C99   1.364       .  A
C99         N100   1.353       .  A
C99        C1982   1.484       .  S
N100        C101   1.351       .  A
C101        N102   1.359       .  A
C101       C1781   1.486       .  S
C103        N104   1.362       .  A
C103        N108   1.361       .  A
C103       C1565   1.497       .  S
N104        C105   1.361       .  A
C105        N106   1.360       .  A
C105       C2174   1.491       .  S
N106        C107   1.359       .  A
C107        N108   1.360       .  A
C107       C1685   1.495       .  S
O109       Mg111   2.116       .  S
O109       Mg117   2.148       .  S
O109        C144   1.236       .  S
C110        O123   1.237       .  S
C110        O147   1.272       .  A
C110        H149   1.081       .  S
Mg111       O140   2.145       .  S
Mg111       O155   2.296       .  S
Mg111       O151   2.226   1_655  S
Mg111       O122   2.299       .  S
O112       Mg154   2.142       .  S
O112       Mg137   2.121       .  S
O112        C133   1.235       .  S
O113        C144   1.269       .  A
O113       Mg137   2.291       .  S
C114       C1421   1.493       .  S
C114        O116   1.275       .  A
C114        O128   1.271   1_455  A
O115        C143   1.272   1_655  A
O115       Mg117   2.304       .  S
O116       Mg148   2.302       .  S
Mg117       O123   2.167       .  S
Mg117       O131   2.310       .  S
Mg117       O119   2.327       .  S
C118       C1454   1.478       .  S
C118        O156   1.269       .  A
C118        O124   1.277       .  A
O119        C126   1.277       .  A
H120        C133   1.081       .  S
C121        O135   1.239       .  S
C121        O136   1.275   1_655  A
C121        H146   1.081       .  S
O122        C145   1.270       .  A
O123       Mg137   2.149       .  S
O124       Mg154   2.331       .  S
C125       C1517   1.494       .  S
C125        O138   1.276       .  A
C125        O130   1.275       .  A
C126       C1541   1.474       .  S
C126        O153   1.269       .  A
Mg127       O134   2.129       .  S
Mg127       O135   2.153       .  S
Mg127       O128   2.271       .  S
Mg127       O129   2.290       .  S
Mg127       O156   2.228       .  S
O129        C133   1.268       .  A
O130       Mg137   2.300       .  S
O131        C150   1.277       .  A
O132        C152   1.278       .  A
O132       Mg148   2.336       .  S
O134       Mg148   2.144   1_655  S
O134        C145   1.236       .  S
O135       Mg154   2.164       .  S
O136       Mg148   2.314       .  S
Mg137       O153   2.220       .  S
O138       Mg154   2.305       .  S
H139        C144   1.081       .  S
O140       Mg148   2.155   1_655  S
O140        C143   1.238   1_655  S
H141        C143   1.081       .  S
H142        C145   1.081       .  S
O147       Mg154   2.308       .  S
C150       C1469   1.492       .  S
C150        O155   1.275       .  A
O151        C152   1.269       .  A
C152       C1493   1.471       .  S
C157        N158   1.360       .  A
C157        N162   1.366       .  A
C157       C1406   1.497       .  S
N158        C159   1.357       .  A
C159        N160   1.351       .  A
C159       C1550   1.485       .  S
N160        C161   1.355       .  A
C161        N162   1.365       .  A
C161       C2006   1.484       .  S
C163        N164   1.360       .  A
C163        N168   1.363       .  A
C163       C1373   1.492       .  S
N164        C165   1.356       .  A
C165        N166   1.353       .  A
C165       C1502   1.484       .  S
N166        C167   1.355       .  A
C167        N168   1.362       .  A
C167       C2198   1.491       .  S
C169        N170   1.360       .  A
C169        N174   1.365       .  A
C169       C1349   1.496       .  S
N170        C171   1.357       .  A
C171        N172   1.354       .  A
C171       C1445   1.490       .  S
N172        C173   1.358       .  A
C173        N174   1.365       .  A
C173       C2246   1.493       .  S
O175       Mg177   2.130       .  S
O175       Mg183   2.155       .  S
O175        C210   1.237       .  S
C176        O189   1.237       .  S
C176        O213   1.271       .  A
C176        H215   1.081       .  S
Mg177       O206   2.141   1_655  S
Mg177       O221   2.270       .  S
Mg177       O217   2.253       .  S
Mg177       O188   2.292       .  S
O178       Mg220   2.159       .  S
O178       Mg203   2.141       .  S
O178        C199   1.238       .  S
O179        C210   1.270       .  A
O179       Mg203   2.290   1_655  S
C180       C1325   1.485       .  S
C180        O182   1.275       .  A
C180        O194   1.275       .  A
O181        C209   1.272       .  A
O181       Mg183   2.299   1_455  S
O182       Mg214   2.282   1_545  S
Mg183       O189   2.143   1_655  S
Mg183       O197   2.302       .  S
Mg183       O185   2.345       .  S
C184       C1310   1.497       .  S
C184        O222   1.272   1_565  A
C184        O190   1.280       .  A
O185        C192   1.281       .  A
H186        C199   1.081       .  S
C187        O201   1.237       .  S
C187        O202   1.271       .  A
C187        H212   1.081       .  S
O188        C211   1.271   1_665  A
O189       Mg203   2.148       .  S
O190       Mg220   2.341       .  S
C191       C1286   1.479       .  S
C191        O204   1.275       .  A
C191        O196   1.274       .  A
C192       C1358   1.494       .  S
C192        O219   1.273       .  A
Mg193       O200   2.136       .  S
Mg193       O201   2.143       .  S
Mg193       O194   2.292   1_565  S
Mg193       O195   2.299       .  S
Mg193       O222   2.258   1_565  S
O195        C199   1.272       .  A
O196       Mg203   2.287       .  S
O197        C216   1.278       .  A
O198        C218   1.280   1_455  A
O198       Mg214   2.345   1_545  S
O200       Mg214   2.159       .  S
O200        C211   1.238   1_565  S
O201       Mg220   2.141       .  S
O202       Mg214   2.303       .  S
Mg203       O219   2.253   1_455  S
O204       Mg220   2.283       .  S
H205        C210   1.081       .  S
O206       Mg214   2.131       .  S
O206        C209   1.238       .  S
H207        C209   1.081       .  S
H208        C211   1.081       .  S
O213       Mg220   2.300       .  S
C216       C1253   1.490       .  S
C216        O221   1.272       .  A
O217        C218   1.272   1_565  A
C218       C1598   1.495       .  S
C223        N224   1.361       .  A
C223        N228   1.364       .  A
C223       C1430   1.491       .  S
N224        C225   1.359       .  A
C225        N226   1.355       .  A
C225       C1277   1.491       .  S
N226        C227   1.356       .  A
C227        N228   1.362       .  A
C227       C1814   1.491       .  S
C229        N230   1.360       .  A
C229        N234   1.364       .  A
C229       C1229   1.484       .  S
N230        C231   1.357       .  A
C231        N232   1.353       .  A
C231       C1334   1.486       .  S
N232        C233   1.357       .  A
C233        N234   1.363       .  A
C233       C2045   1.489       .  S
C235        N236   1.364       .  A
C235        N240   1.361       .  A
C235       C1766   1.492       .  S
N236        C237   1.361       .  A
C237        N238   1.356       .  A
C237       C1262   1.491       .  S
N238        C239   1.354       .  A
C239        N240   1.358       .  A
C239       C2126   1.489       .  S
O241       Mg243   2.122       .  S
O241       Mg249   2.146       .  S
O241        C276   1.237       .  S
C242        O255   1.239       .  S
C242        O279   1.274       .  A
C242        H281   1.081       .  S
Mg243       O272   2.138       .  S
Mg243       O287   2.269       .  S
Mg243       O283   2.230   1_556  S
Mg243       O254   2.296       .  S
O244       Mg286   2.137       .  S
O244       Mg269   2.128       .  S
O244        C265   1.237       .  S
O245        C276   1.270       .  A
O245       Mg269   2.296       .  S
C246       C1085   1.484       .  S
C246        O248   1.272       .  A
C246        O260   1.274   1_554  A
O247        C275   1.273   1_556  A
O247       Mg249   2.306       .  S
O248       Mg280   2.271       .  S
Mg249       O255   2.156       .  S
Mg249       O263   2.308       .  S
Mg249       O251   2.328       .  S
C250       C1118   1.474       .  S
C250        O288   1.268       .  A
C250        O256   1.280       .  A
O251        C258   1.278       .  A
H252        C265   1.081       .  S
C253        O267   1.238       .  S
C253        O268   1.273   1_556  A
C253        H278   1.081       .  S
O254        C277   1.270       .  A
O255       Mg269   2.139       .  S
O256       Mg286   2.348       .  S
C257       C1190   1.488       .  S
C257        O270   1.277       .  A
C257        O262   1.275       .  A
C258       C1214   1.479       .  S
C258        O285   1.271       .  A
Mg259       O266   2.126       .  S
Mg259       O267   2.141       .  S
Mg259       O260   2.288       .  S
Mg259       O261   2.300       .  S
Mg259       O288   2.227       .  S
O261        C265   1.271       .  A
O262       Mg269   2.295       .  S
O263        C282   1.276       .  A
O264        C284   1.277       .  A
O264       Mg280   2.336       .  S
O266       Mg280   2.143   1_556  S
O266        C277   1.236       .  S
O267       Mg286   2.159       .  S
O268       Mg280   2.312       .  S
Mg269       O285   2.245       .  S
O270       Mg286   2.304       .  S
H271        C276   1.081       .  S
O272       Mg280   2.140   1_556  S
O272        C275   1.239   1_556  S
H273        C275   1.081       .  S
H274        C277   1.081       .  S
O279       Mg286   2.311       .  S
C282       C1133   1.486       .  S
C282        O287   1.270       .  A
O283        C284   1.269       .  A
C284       C1157   1.477       .  S
C289        N290   1.361       .  A
C289        N294   1.360       .  A
C289       C1070   1.486       .  S
N290        C291   1.361       .  A
C291        N292   1.358       .  A
C291       C1037   1.483       .  S
N292        C293   1.356       .  A
C293        N294   1.360       .  A
C293       C1205   1.490       .  S
C295        N296   1.363       .  A
C295        N300   1.362       .  A
C295       C1013   1.495       .  S
N296        C297   1.362       .  A
C297        N298   1.355       .  A
C297       C1949   1.480       .  S
N298        C299   1.352       .  A
C299        N300   1.359       .  A
C299       C1166   1.490       .  S
C301        N302   1.361       .  A
C301        N306   1.359       .  A
C301        C989   1.491       .  S
N302        C303   1.360       .  A
C303        N304   1.358       .  A
C303       C2270   1.482       .  S
N304        C305   1.357       .  A
C305        N306   1.356       .  A
C305       C1109   1.480       .  S
O307       Mg309   2.124       .  S
O307       Mg315   2.156       .  S
O307        C342   1.238       .  S
C308        O321   1.236       .  S
C308        O345   1.270       .  A
C308        H347   1.081       .  S
Mg309       O338   2.139       .  S
Mg309       O353   2.282       .  S
Mg309       O349   2.227   1_554  S
Mg309       O320   2.294   1_554  S
O310       Mg352   2.156       .  S
O310       Mg335   2.144   1_655  S
O310        C331   1.239   1_655  S
O311        C342   1.271       .  A
O311       Mg335   2.293   1_655  S
C312        C917   1.487       .  S
C312        O314   1.273       .  A
C312        O326   1.275       .  A
O313        C341   1.270       .  A
O313       Mg315   2.292       .  S
O314       Mg346   2.271       .  S
Mg315       O321   2.138       .  S
Mg315       O329   2.288       .  S
Mg315       O317   2.326       .  S
C316       C1646   1.497       .  S
C316        O354   1.272   1_455  A
C316        O322   1.280   1_556  A
O317        C324   1.279       .  A
H318        C331   1.081       .  S
C319        O333   1.238       .  S
C319        O334   1.272       .  A
C319        H344   1.081       .  S
O320        C343   1.271       .  A
O321       Mg335   2.145   1_655  S
O322       Mg352   2.348   1_455  S
C323        C965   1.480       .  S
C323        O336   1.276       .  A
C323        O328   1.275       .  A
C324       C1382   1.490       .  S
C324        O351   1.271   1_655  A
Mg325       O332   2.130       .  S
Mg325       O333   2.137   1_556  S
Mg325       O326   2.294       .  S
Mg325       O327   2.301       .  S
Mg325       O354   2.249       .  S
O327        C331   1.272   1_656  A
O328       Mg335   2.301       .  S
O329        C348   1.276       .  A
O330        C350   1.279       .  A
O330       Mg346   2.341       .  S
O332       Mg346   2.149       .  S
O332        C343   1.238       .  S
O333       Mg352   2.141       .  S
O334       Mg346   2.307   1_554  S
Mg335       O351   2.246       .  S
O336       Mg352   2.278   1_455  S
H337        C342   1.081       .  S
O338       Mg346   2.129   1_554  S
O338        C341   1.237       .  S
H339        C341   1.081       .  S
H340        C343   1.081       .  S
O345       Mg352   2.300       .  S
C348        C950   1.481       .  S
C348        O353   1.273       .  A
O349        C350   1.269       .  A
C350        C998   1.488       .  S
C355        N356   1.360       .  A
C355        N360   1.359       .  A
C355       C1094   1.488       .  S
N356        C357   1.359       .  A
C357        N358   1.359       .  A
C357        C941   1.483       .  S
N358        C359   1.359       .  A
C359        N360   1.357       .  A
C359       C2102   1.475       .  S
C361        N362   1.365       .  A
C361        N366   1.364       .  A
C361       C1478   1.494       .  S
N362        C363   1.363       .  A
C363        N364   1.357       .  A
C363       C2078   1.486       .  S
N364        C365   1.355       .  A
C365        N366   1.360       .  A
C365        C974   1.492       .  S
C367        N368   1.362       .  A
C367        N372   1.363       .  A
C367       C1709   1.490       .  S
N368        C369   1.359       .  A
C369        N370   1.352       .  A
C369        C926   1.489       .  S
N370        C371   1.354       .  A
C371        N372   1.360       .  A
C371       C1910   1.481       .  S
O373       Mg375   2.133       .  S
O373       Mg381   2.159       .  S
O373        C408   1.237       .  S
C374        O387   1.238       .  S
C374        O411   1.272       .  A
C374        H413   1.081       .  S
Mg375       O404   2.146       .  S
Mg375       O419   2.267       .  S
Mg375       O415   2.249   1_545  S
Mg375       O386   2.287   1_545  S
O376       Mg418   2.154       .  S
O376       Mg401   2.130   1_556  S
O376        C397   1.237   1_556  S
O377        C408   1.270       .  A
O377       Mg401   2.293   1_556  S
C378        C821   1.479       .  S
C378        O380   1.275       .  A
C378        O392   1.273       .  A
O379        C407   1.270       .  A
O379       Mg381   2.298       .  S
O380       Mg412   2.282       .  S
Mg381       O387   2.138       .  S
Mg381       O395   2.285       .  S
Mg381       O383   2.328       .  S
C382       C1574   1.493       .  S
C382        O420   1.270   1_554  A
C382        O388   1.280   1_565  A
O383        C390   1.279       .  A
H384        C397   1.081       .  S
C385        O399   1.238       .  S
C385        O400   1.271       .  A
C385        H410   1.081       .  S
O386        C409   1.269       .  A
O387       Mg401   2.146   1_556  S
O388       Mg418   2.342   1_554  S
C389        C902   1.478       .  S
C389        O402   1.274       .  A
C389        O394   1.273       .  A
C390       C1022   1.493   1_556  S
C390        O417   1.271   1_556  A
Mg391       O398   2.122       .  S
Mg391       O399   2.140   1_565  S
Mg391       O392   2.273       .  S
Mg391       O393   2.292       .  S
Mg391       O420   2.241       .  S
O393        C397   1.271   1_566  A
O394       Mg401   2.274       .  S
O395        C414   1.275       .  A
O396        C416   1.280       .  A
O396       Mg412   2.338       .  S
O398       Mg412   2.155       .  S
O398        C409   1.236       .  S
O399       Mg418   2.134       .  S
O400       Mg412   2.300   1_545  S
Mg401       O417   2.255       .  S
O402       Mg418   2.276   1_554  S
H403        C408   1.081       .  S
O404       Mg412   2.132   1_545  S
O404        C407   1.237       .  S
H405        C407   1.081       .  S
H406        C409   1.081       .  S
O411       Mg418   2.304       .  S
C414        C869   1.483       .  S
C414        O419   1.272       .  A
O415        C416   1.271       .  A
C416        C845   1.494       .  S
C421        N422   1.361       .  A
C421        N426   1.364       .  A
C421        C797   1.492       .  S
N422        C423   1.359       .  A
C423        N424   1.354       .  A
C423        C878   1.492       .  S
N424        C425   1.357       .  A
C425        N426   1.363       .  A
C425       C1886   1.487       .  S
C427        N428   1.364       .  A
C427        N432   1.363       .  A
C427       C1142   1.488       .  S
N428        C429   1.361       .  A
C429        N430   1.352       .  A
C429       C2030   1.481       .  S
N430        C431   1.352       .  A
C431        N432   1.359       .  A
C431        C893   1.487       .  S
C433        N434   1.368       .  A
C433        N438   1.361       .  A
C433       C1670   1.495       .  S
N434        C435   1.366       .  A
C435        N436   1.356       .  A
C435       C1838   1.494       .  S
N436        C437   1.350       .  A
C437        N438   1.354       .  A
C437        C830   1.480       .  S
O439       Mg441   2.147       .  S
O439       Mg447   2.167       .  S
O439        C474   1.238       .  S
C440        O453   1.237       .  S
C440        O477   1.271       .  A
C440        H479   1.081       .  S
Mg441       O470   2.145       .  S
Mg441       O485   2.282       .  S
Mg441       O481   2.275       .  S
Mg441       O452   2.292       .  S
O442       Mg484   2.161       .  S
O442       Mg467   2.132       .  S
O442        C463   1.238       .  S
O443        C474   1.272       .  A
O443       Mg467   2.296       .  S
C444        C701   1.482       .  S
C444        O446   1.275       .  A
C444        O458   1.271       .  A
O445        C473   1.270       .  A
O445       Mg447   2.299       .  S
O446       Mg478   2.283       .  S
Mg447       O453   2.143       .  S
Mg447       O461   2.293       .  S
Mg447       O449   2.359       .  S
C448       C1061   1.489       .  S
C448        O486   1.270       .  A
C448        O454   1.281       .  A
O449        C456   1.282       .  A
H450        C463   1.081       .  S
C451        O465   1.238       .  S
C451        O466   1.272       .  A
C451        H476   1.081       .  S
O452        C475   1.270       .  A
O453       Mg467   2.143       .  S
O454       Mg484   2.353       .  S
C455        C782   1.489       .  S
C455        O468   1.277       .  A
C455        O460   1.273       .  A
C456       C1397   1.497       .  S
C456        O483   1.270       .  A
Mg457       O464   2.130       .  S
Mg457       O465   2.143       .  S
Mg457       O458   2.269       .  S
Mg457       O459   2.292       .  S
Mg457       O486   2.236       .  S
O459        C463   1.271       .  A
O460       Mg467   2.275       .  S
O461        C480   1.277       .  A
O462        C482   1.279       .  A
O462       Mg478   2.333       .  S
O464       Mg478   2.154       .  S
O464        C475   1.237       .  S
O465       Mg484   2.139       .  S
O466       Mg478   2.302       .  S
Mg467       O483   2.238       .  S
O468       Mg484   2.303       .  S
H469        C474   1.081       .  S
O470       Mg478   2.135       .  S
O470        C473   1.237       .  S
H471        C473   1.081       .  S
H472        C475   1.081       .  S
O477       Mg484   2.302       .  S
C480        C758   1.482       .  S
C480        O485   1.274       .  A
O481        C482   1.274       .  A
C482        C725   1.497       .  S
C487        N488   1.363       .  A
C487        N492   1.368       .  A
C487        C677   1.498       .  S
N488        C489   1.359       .  A
C489        N490   1.355       .  A
C489        C749   1.495       .  S
N490        C491   1.358       .  A
C491        N492   1.365       .  A
C491       C2150   1.494       .  S
C493        N494   1.362       .  A
C493        N498   1.365       .  A
C493       C1181   1.488       .  S
N494        C495   1.357       .  A
C495        N496   1.354       .  A
C495        C710   1.490       .  S
N496        C497   1.355       .  A
C497        N498   1.363       .  A
C497       C1862   1.491       .  S
C499        N500   1.365       .  A
C499        N504   1.365       .  A
C499       C1526   1.501       .  S
N500        C501   1.360       .  A
C501        N502   1.355       .  A
C501       C1934   1.476       .  S
N502        C503   1.354       .  A
C503        N504   1.363       .  A
C503        C773   1.496       .  S
O505       Mg507   2.117       .  S
O505       Mg513   2.137   1_565  S
O505        C540   1.236       .  S
C506        O519   1.239       .  S
C506        O543   1.275       .  A
C506        H545   1.081   1_565  S
Mg507       O536   2.145       .  S
Mg507       O551   2.279       .  S
Mg507       O547   2.221       .  S
Mg507       O518   2.287       .  S
O508       Mg550   2.147       .  S
O508       Mg533   2.133       .  S
O508        C529   1.236       .  S
O509        C540   1.270       .  A
O509       Mg533   2.297       .  S
C510        C686   1.496       .  S
C510        O512   1.276       .  A
C510        O524   1.273       .  A
O511        C539   1.274   1_545  A
O511       Mg513   2.308       .  S
O512       Mg544   2.308       .  S
Mg513       O519   2.177   1_545  S
Mg513       O527   2.327       .  S
Mg513       O515   2.333       .  S
C514        C662   1.491       .  S
C514        O552   1.268       .  A
C514        O520   1.281       .  A
O515        C522   1.278       .  A
H516        C529   1.081       .  S
C517        O531   1.239       .  S
C517        O532   1.274       .  A
C517        H542   1.081       .  S
O518        C541   1.268       .  A
O519       Mg533   2.148       .  S
O520       Mg550   2.370       .  S
C521       C1238   1.491       .  S
C521        O534   1.276       .  A
C521        O526   1.275       .  A
C522        C638   1.472       .  S
C522        O549   1.270       .  A
Mg523       O530   2.113       .  S
Mg523       O531   2.142       .  S
Mg523       O524   2.288       .  S
Mg523       O525   2.297       .  S
Mg523       O552   2.211       .  S
O525        C529   1.270       .  A
O526       Mg533   2.292       .  S
O527        C546   1.278       .  A
O528        C548   1.280       .  A
O528       Mg544   2.351       .  S
O530       Mg544   2.139       .  S
O530        C541   1.235       .  S
O531       Mg550   2.157       .  S
O532       Mg544   2.313       .  S
Mg533       O549   2.238   1_565  S
O534       Mg550   2.297       .  S
H535        C540   1.081       .  S
O536       Mg544   2.157       .  S
O536        C539   1.239       .  S
H537        C539   1.081       .  S
H538        C541   1.081       .  S
O543       Mg550   2.320       .  S
C546        C806   1.499       .  S
C546        O551   1.273   1_545  A
O547        C548   1.269       .  A
C548        C605   1.478       .  S
C553        N554   1.361       .  A
C553        N558   1.368       .  A
C553        C734   1.499       .  S
N554        C555   1.355       .  A
C555        N556   1.352       .  A
C555        C653   1.484       .  S
N556        C557   1.359       .  A
C557        N558   1.367       .  A
C557       C2222   1.495       .  S
C559        N560   1.364       .  A
C559        N564   1.360       .  A
C559       C1301   1.496       .  S
N560        C561   1.363       .  A
C561        N562   1.357       .  A
C561        C581   1.484       .  S
N562        C563   1.354       .  A
C563        N564   1.358       .  A
C563        C629   1.489       .  S
C565        N566   1.360       .  A
C565        N570   1.366       .  A
C565        C854   1.498       .  S
N566        C567   1.356       .  A
C567        N568   1.355       .  A
C567        C614   1.493       .  S
N568        C569   1.359       .  A
C569        N570   1.365       .  A
C569       C2294   1.492       .  S
C571        N572   1.357       .  A
C571        N576   1.355       .  A
C571       C1613   1.490       .  S
N572        C573   1.359       .  A
C573        N574   1.362       .  A
C573       C1046   1.493       .  S
N574        C575   1.362       .  A
C575        N576   1.358       .  A
C575        C590   1.491       .  S
C577        H587   1.084       .  S
C577        C578   1.398       .  A
C577        C582   1.397       .  A
C578        C583   1.477       .  S
C578        C579   1.406       .  A
C579        C580   1.404       .  A
C579        O584   1.371       .  S
C580        H585   1.083       .  S
C580        C581   1.407       .  A
C581        C582   1.413       .  A
C582        O586   1.373       .  S
C583        C588   1.402       .  A
C583        C592   1.402       .  A
O584        H600   0.991       .  S
O586        H597   0.992       .  S
C588        C589   1.398       .  A
C588        O593   1.372       .  S
C589        H594   1.082       .  S
C589        C590   1.411       .  A
C590        C591   1.414       .  A
C591        C592   1.401       .  A
C591        O595   1.371       .  S
C592        H596   1.084       .  S
O593        H598   0.992       .  S
O595        H599   0.992       .  S
C601        H611   1.084       .  S
C601        C602   1.401       .  A
C601        C606   1.395       .  A
C602        C607   1.481       .  S
C602        C603   1.409       .  A
C603        C604   1.406       .  A
C603        O608   1.371       .  S
C604        H609   1.083       .  S
C604        C605   1.405       .  A
C605        C606   1.411       .  A
C606        O610   1.372       .  S
C607        C612   1.404       .  A
C607        C616   1.402       .  A
O608        H624   0.991       .  S
O610        H621   0.992       .  S
C612        C613   1.402       .  A
C612        O617   1.371       .  S
C613        H618   1.083       .  S
C613        C614   1.411       .  A
C614        C615   1.415       .  A
C615        C616   1.399       .  A
C615        O619   1.371       .  S
C616        H620   1.084       .  S
O617        H622   0.992       .  S
O619        H623   0.992       .  S
C625        H635   1.084       .  S
C625        C626   1.400       .  A
C625        C630   1.401       .  A
C626        C631   1.479       .  S
C626        C627   1.407       .  A
C627        C628   1.399       .  A
C627        O632   1.373       .  S
C628        H633   1.083       .  S
C628        C629   1.406       .  A
C629        C630   1.417       .  A
C630        O634   1.370       .  S
C631        C636   1.407       .  A
C631        C640   1.403       .  A
O632        H648   0.992       .  S
O634        H645   0.992       .  S
C636        C637   1.399       .  A
C636        O641   1.374       .  S
C637        H642   1.084       .  S
C637        C638   1.403       .  A
C638        C639   1.408       .  A
C639        C640   1.402       .  A
C639        O643   1.371       .  S
C640        H644   1.084       .  S
O641        H646   0.992       .  S
O643        H647   0.991       .  S
C649        H659   1.084       .  S
C649        C650   1.401       .  A
C649        C654   1.403       .  A
C650        C655   1.482       .  S
C650        C651   1.408       .  A
C651        C652   1.400       .  A
C651        O656   1.373       .  S
C652        H657   1.084       .  S
C652        C653   1.404       .  A
C653        C654   1.414       .  A
C654        O658   1.372       .  S
C655        C660   1.403       .  A
C655        C664   1.406       .  A
O656        H672   0.992       .  S
O658        H669   0.992       .  S
C660        C661   1.392       .  A
C660        O665   1.372       .  S
C661        H666   1.084       .  S
C661        C662   1.410       .  A
C662        C663   1.413       .  A
C663        C664   1.410       .  A
C663        O667   1.371       .  S
C664        H668   1.083       .  S
O665        H670   0.991       .  S
O667        H671   0.992       .  S
C673        H683   1.084       .  S
C673        C674   1.400       .  A
C673        C678   1.403       .  A
C674        C679   1.490       .  S
C674        C675   1.409       .  A
C675        C676   1.407       .  A
C675        O680   1.372       .  S
C676        H681   1.083       .  S
C676        C677   1.408       .  A
C677        C678   1.417       .  A
C678        O682   1.371       .  S
C679        C684   1.406       .  A
C679        C688   1.406       .  A
O680        H696   0.992       .  S
O682        H693   0.993       .  S
C684        C685   1.400       .  A
C684        O689   1.372       .  S
C685        H690   1.083       .  S
C685        C686   1.410       .  A
C686        C687   1.414       .  A
C687        C688   1.407       .  A
C687        O691   1.371       .  S
C688        H692   1.083       .  S
O689        H694   0.992       .  S
O691        H695   0.992       .  S
C697        H707   1.084       .  S
C697        C698   1.400       .  A
C697        C702   1.398       .  A
C698        C703   1.477       .  S
C698        C699   1.406       .  A
C699        C700   1.400       .  A
C699        O704   1.372       .  S
C700        H705   1.083       .  S
C700        C701   1.405       .  A
C701        C702   1.415       .  A
C702        O706   1.372       .  S
C703        C708   1.402       .  A
C703        C712   1.402       .  A
O704        H720   0.991       .  S
O706        H717   0.992       .  S
C708        C709   1.396       .  A
C708        O713   1.372       .  S
C709        H714   1.082       .  S
C709        C710   1.410       .  A
C710        C711   1.415       .  A
C711        C712   1.402       .  A
C711        O715   1.371       .  S
C712        H716   1.084       .  S
O713        H718   0.992       .  S
O715        H719   0.991       .  S
C721        H731   1.084       .  S
C721        C722   1.402       .  A
C721        C726   1.401       .  A
C722        C727   1.493       .  S
C722        C723   1.411       .  A
C723        C724   1.408       .  A
C723        O728   1.373       .  S
C724        H729   1.083       .  S
C724        C725   1.409       .  A
C725        C726   1.416       .  A
C726        O730   1.372       .  S
C727        C732   1.407       .  A
C727        C736   1.407       .  A
O728        H744   0.992       .  S
O730        H741   0.992       .  S
C732        C733   1.399       .  A
C732        O737   1.371       .  S
C733        H738   1.083       .  S
C733        C734   1.411       .  A
C734        C735   1.414       .  A
C735        C736   1.407       .  A
C735        O739   1.371       .  S
C736        H740   1.084       .  S
O737        H742   0.992       .  S
O739        H743   0.992       .  S
C745        H755   1.084       .  S
C745        C746   1.400       .  A
C745        C750   1.401       .  A
C746        C751   1.476       .  S
C746        C747   1.402       .  A
C747        C748   1.401       .  A
C747        O752   1.371       .  S
C748        H753   1.083       .  S
C748        C749   1.412       .  A
C749        C750   1.415       .  A
C750        O754   1.370       .  S
C751        C756   1.406       .  A
C751        C760   1.399       .  A
O752        H768   0.992       .  S
O754        H765   0.992       .  S
C756        C757   1.404       .  A
C756        O761   1.371       .  S
C757        H762   1.083       .  S
C757        C758   1.407       .  A
C758        C759   1.412       .  A
C759        C760   1.398       .  A
C759        O763   1.373       .  S
C760        H764   1.084       .  S
O761        H766   0.992       .  S
O763        H767   0.992       .  S
C769        H779   1.084       .  S
C769        C770   1.398       .  A
C769        C774   1.402       .  A
C770        C775   1.484       .  S
C770        C771   1.408       .  A
C771        C772   1.403       .  A
C771        O776   1.372       .  S
C772        H777   1.083       .  S
C772        C773   1.408       .  A
C773        C774   1.420       .  A
C774        O778   1.371       .  S
C775        C780   1.405       .  A
C775        C784   1.405       .  A
O776        H792   0.992       .  S
O778        H789   0.992       .  S
C780        C781   1.398       .  A
C780        O785   1.372       .  S
C781        H786   1.084       .  S
C781        C782   1.409       .  A
C782        C783   1.413       .  A
C783        C784   1.406       .  A
C783        O787   1.371       .  S
C784        H788   1.084       .  S
O785        H790   0.992       .  S
O787        H791   0.991       .  S
C793        H803   1.084       .  S
C793        C794   1.403       .  A
C793        C798   1.401       .  A
C794        C799   1.490       .  S
C794        C795   1.408       .  A
C795        C796   1.406       .  A
C795        O800   1.371       .  S
C796        H801   1.083       .  S
C796        C797   1.408       .  A
C797        C798   1.414       .  A
C798        O802   1.372       .  S
C799        C804   1.406       .  A
C799        C808   1.406       .  A
O800        H816   0.991       .  S
O802        H813   0.991       .  S
C804        C805   1.398       .  A
C804        O809   1.372       .  S
C805        H810   1.083       .  S
C805        C806   1.411       .  A
C806        C807   1.415       .  A
C807        C808   1.410       .  A
C807        O811   1.371       .  S
C808        H812   1.083       .  S
O809        H814   0.993       .  S
O811        H815   0.992       .  S
C817        H827   1.084       .  S
C817        C818   1.401       .  A
C817        C822   1.395       .  A
C818        C823   1.481       .  S
C818        C819   1.409       .  A
C819        C820   1.404       .  A
C819        O824   1.372       .  S
C820        H825   1.084       .  S
C820        C821   1.405       .  A
C821        C822   1.411       .  A
C822        O826   1.372       .  S
C823        C828   1.406       .  A
C823        C832   1.405       .  A
O824        H840   0.992       .  S
O826        H837   0.993       .  S
C828        C829   1.401       .  A
C828        O833   1.372       .  S
C829        H834   1.084       .  S
C829        C830   1.407       .  A
C830        C831   1.409       .  A
C831        C832   1.397       .  A
C831        O835   1.372       .  S
C832        H836   1.084       .  S
O833        H838   0.992       .  S
O835        H839   0.992       .  S
C841        H851   1.084       .  S
C841        C842   1.399       .  A
C841        C846   1.399       .  A
C842        C847   1.483       .  S
C842        C843   1.407       .  A
C843        C844   1.405       .  A
C843        O848   1.372       .  S
C844        H849   1.083       .  S
C844        C845   1.409       .  A
C845        C846   1.418       .  A
C846        O850   1.372       .  S
C847        C852   1.403       .  A
C847        C856   1.404       .  A
O848        H864   0.991       .  S
O850        H861   0.993       .  S
C852        C853   1.398       .  A
C852        O857   1.372       .  S
C853        H858   1.082       .  S
C853        C854   1.411       .  A
C854        C855   1.416       .  A
C855        C856   1.407       .  A
C855        O859   1.371       .  S
C856        H860   1.084       .  S
O857        H862   0.992       .  S
O859        H863   0.992       .  S
C865        H875   1.084       .  S
C865        C866   1.404       .  A
C865        C870   1.402       .  A
C866        C871   1.480       .  S
C866        C867   1.405       .  A
C867        C868   1.398       .  A
C867        O872   1.373       .  S
C868        H873   1.084       .  S
C868        C869   1.408       .  A
C869        C870   1.411       .  A
C870        O874   1.371       .  S
C871        C876   1.408       .  A
C871        C880   1.399       .  A
O872        H888   0.992       .  S
O874        H885   0.991       .  S
C876        C877   1.399       .  A
C876        O881   1.372       .  S
C877        H882   1.083       .  S
C877        C878   1.407       .  A
C878        C879   1.418       .  A
C879        C880   1.400       .  A
C879        O883   1.370       .  S
C880        H884   1.084       .  S
O881        H886   0.992       .  S
O883        H887   0.992       .  S
C889        H899   1.084       .  S
C889        C890   1.403       .  A
C889        C894   1.400       .  A
C890        C895   1.477       .  S
C890        C891   1.402       .  A
C891        C892   1.397       .  A
C891        O896   1.372       .  S
C892        H897   1.083       .  S
C892        C893   1.411       .  A
C893        C894   1.412       .  A
C894        O898   1.371       .  S
C895        C900   1.408       .  A
C895        C904   1.401       .  A
O896        H912   0.991       .  S
O898        H909   0.992       .  S
C900        C901   1.400       .  A
C900        O905   1.372       .  S
C901        H906   1.083       .  S
C901        C902   1.406       .  A
C902        C903   1.412       .  A
C903        C904   1.396       .  A
C903        O907   1.372       .  S
C904        H908   1.084       .  S
O905        H910   0.992       .  S
O907        H911   0.992       .  S
C913        H923   1.084       .  S
C913        C914   1.402       .  A
C913        C918   1.402       .  A
C914        C919   1.478       .  S
C914        C915   1.404       .  A
C915        C916   1.398       .  A
C915        O920   1.373       .  S
C916        H921   1.083       .  S
C916        C917   1.408       .  A
C917        C918   1.415       .  A
C918        O922   1.372       .  S
C919        C924   1.407       .  A
C919        C928   1.398       .  A
O920        H936   0.992       .  S
O922        H933   0.992       .  S
C924        C925   1.398       .  A
C924        O929   1.371       .  S
C925        H930   1.083       .  S
C925        C926   1.407       .  A
C926        C927   1.419       .  A
C927        C928   1.399       .  A
C927        O931   1.371       .  S
C928        H932   1.084       .  S
O929        H934   0.992       .  S
O931        H935   0.992       .  S
C937        H947   1.084       .  S
C937        C938   1.404       .  A
C937        C942   1.400       .  A
C938        C943   1.484       .  S
C938        C939   1.407       .  A
C939        C940   1.403       .  A
C939        O944   1.372       .  S
C940        H945   1.083       .  S
C940        C941   1.406       .  A
C941        C942   1.411       .  A
C942        O946   1.372       .  S
C943        C948   1.409       .  A
C943        C952   1.403       .  A
O944        H960   0.992       .  S
O946        H957   0.993       .  S
C948        C949   1.404       .  A
C948        O953   1.372       .  S
C949        H954   1.084       .  S
C949        C950   1.405       .  A
C950        C951   1.411       .  A
C951        C952   1.400       .  A
C951        O955   1.372       .  S
C952        H956   1.084       .  S
O953        H958   0.992       .  S
O955        H959   0.992       .  S
C961        H971   1.084       .  S
C961        C962   1.405       .  A
C961        C966   1.405       .  A
C962        C967   1.486       .  S
C962        C963   1.408       .  A
C963        C964   1.400       .  A
C963        O968   1.372       .  S
C964        H969   1.084       .  S
C964        C965   1.403       .  A
C965        C966   1.411       .  A
C966        O970   1.372       .  S
C967        C972   1.407       .  A
C967        C976   1.403       .  A
O968        H984   0.991       .  S
O970        H981   0.993       .  S
C972        C973   1.400       .  A
C972        O977   1.372       .  S
C973        H978   1.083       .  S
C973        C974   1.409       .  A
C974        C975   1.413       .  A
C975        C976   1.405       .  A
C975        O979   1.371       .  S
C976        H980   1.084       .  S
O977        H982   0.992       .  S
O979        H983   0.991       .  S
C985        H995   1.084       .  S
C985        C986   1.404       .  A
C985        C990   1.401       .  A
C986        C991   1.484       .  S
C986        C987   1.406       .  A
C987        C988   1.400       .  A
C987        O992   1.373       .  S
C988        H993   1.083       .  S
C988        C989   1.409       .  A
C989        C990   1.414       .  A
C990        O994   1.371       .  S
C991        C996   1.410       .  A
C991       C1000   1.399       .  A
O992       H1008   0.991       .  S
O994       H1005   0.993       .  S
C996        C997   1.407       .  A
C996       O1001   1.373       .  S
C997       H1002   1.083       .  S
C997        C998   1.407       .  A
C998        C999   1.416       .  A
C999       C1000   1.394       .  A
C999       O1003   1.372       .  S
C1000      H1004   1.084       .  S
O1001      H1006   0.991       .  S
O1003      H1007   0.992       .  S
C1009      H1019   1.084       .  S
C1009      C1010   1.402       .  A
C1009      C1014   1.405       .  A
C1010      C1015   1.481       .  S
C1010      C1011   1.404       .  A
C1011      C1012   1.399       .  A
C1011      O1016   1.372       .  S
C1012      H1017   1.083       .  S
C1012      C1013   1.410       .  A
C1013      C1014   1.416       .  A
C1014      O1018   1.371       .  S
C1015      C1020   1.406       .  A
C1015      C1024   1.400       .  A
O1016      H1032   0.991   1_554  S
O1018      H1029   0.992       .  S
C1020      C1021   1.403   1_554  A
C1020      O1025   1.372   1_554  S
C1021      H1026   1.083       .  S
C1021      C1022   1.408   1_556  A
C1022      C1023   1.418       .  A
C1023      C1024   1.401       .  A
C1023      O1027   1.372       .  S
C1024      H1028   1.084       .  S
O1025      H1030   0.991       .  S
O1027      H1031   0.992       .  S
C1033      H1043   1.084       .  S
C1033      C1034   1.401       .  A
C1033      C1038   1.398       .  A
C1034      C1039   1.480       .  S
C1034      C1035   1.407       .  A
C1035      C1036   1.403       .  A
C1035      O1040   1.372       .  S
C1036      H1041   1.083       .  S
C1036      C1037   1.406       .  A
C1037      C1038   1.412       .  A
C1038      O1042   1.372       .  S
C1039      C1044   1.406       .  A
C1039      C1048   1.399       .  A
O1040      H1056   0.991       .  S
O1042      H1053   0.992       .  S
C1044      C1045   1.403       .  A
C1044      O1049   1.371       .  S
C1045      H1050   1.083       .  S
C1045      C1046   1.410       .  A
C1046      C1047   1.417       .  A
C1047      C1048   1.397       .  A
C1047      O1051   1.371       .  S
C1048      H1052   1.084       .  S
O1049      H1054   0.992       .  S
O1051      H1055   0.992       .  S
C1057      H1067   1.083       .  S
C1057      C1058   1.406       .  A
C1057      C1062   1.406       .  A
C1058      C1063   1.484       .  S
C1058      C1059   1.405       .  A
C1059      C1060   1.399       .  A
C1059      O1064   1.372       .  S
C1060      H1065   1.084       .  S
C1060      C1061   1.409       .  A
C1061      C1062   1.410       .  A
C1062      O1066   1.371       .  S
C1063      C1068   1.409       .  A
C1063      C1072   1.402       .  A
O1064      H1080   0.991       .  S
O1066      H1077   0.991       .  S
C1068      C1069   1.403       .  A
C1068      O1073   1.371       .  S
C1069      H1074   1.083       .  S
C1069      C1070   1.407       .  A
C1070      C1071   1.413       .  A
C1071      C1072   1.400       .  A
C1071      O1075   1.371       .  S
C1072      H1076   1.084       .  S
O1073      H1078   0.991       .  S
O1075      H1079   0.992       .  S
C1081      H1091   1.084       .  S
C1081      C1082   1.404       .  A
C1081      C1086   1.403       .  A
C1082      C1087   1.480       .  S
C1082      C1083   1.407       .  A
C1083      C1084   1.396       .  A
C1083      O1088   1.373       .  S
C1084      H1089   1.084       .  S
C1084      C1085   1.406       .  A
C1085      C1086   1.413       .  A
C1086      O1090   1.372       .  S
C1087      C1092   1.406       .  A
C1087      C1096   1.401       .  A
O1088      H1104   0.992       .  S
O1090      H1101   0.992       .  S
C1092      C1093   1.399       .  A
C1092      O1097   1.372       .  S
C1093      H1098   1.083       .  S
C1093      C1094   1.408       .  A
C1094      C1095   1.414       .  A
C1095      C1096   1.401       .  A
C1095      O1099   1.372       .  S
C1096      H1100   1.084       .  S
O1097      H1102   0.992       .  S
O1099      H1103   0.992       .  S
C1105      H1115   1.084       .  S
C1105      C1106   1.402       .  A
C1105      C1110   1.402       .  A
C1106      C1111   1.475       .  S
C1106      C1107   1.403       .  A
C1107      C1108   1.399       .  A
C1107      O1112   1.371       .  S
C1108      H1113   1.083       .  S
C1108      C1109   1.406       .  A
C1109      C1110   1.412       .  A
C1110      O1114   1.372       .  S
C1111      C1116   1.406       .  A
C1111      C1120   1.400       .  A
O1112      H1128   0.992       .  S
O1114      H1125   0.992       .  S
C1116      C1117   1.402       .  A
C1116      O1121   1.371       .  S
C1117      H1122   1.084       .  S
C1117      C1118   1.403       .  A
C1118      C1119   1.411       .  A
C1119      C1120   1.399       .  A
C1119      O1123   1.373       .  S
C1120      H1124   1.084       .  S
O1121      H1126   0.992       .  S
O1123      H1127   0.992       .  S
C1129      H1139   1.084       .  S
C1129      C1130   1.398       .  A
C1129      C1134   1.400       .  A
C1130      C1135   1.479       .  S
C1130      C1131   1.408   1_554  A
C1131      C1132   1.405       .  A
C1131      O1136   1.371       .  S
C1132      H1137   1.083       .  S
C1132      C1133   1.406       .  A
C1133      C1134   1.416   1_556  A
C1134      O1138   1.373       .  S
C1135      C1140   1.405       .  A
C1135      C1144   1.401       .  A
O1136      H1152   0.992       .  S
O1138      H1149   0.992       .  S
C1140      C1141   1.401       .  A
C1140      O1145   1.372       .  S
C1141      H1146   1.083       .  S
C1141      C1142   1.408       .  A
C1142      C1143   1.413       .  A
C1143      C1144   1.403       .  A
C1143      O1147   1.371       .  S
C1144      H1148   1.083       .  S
O1145      H1150   0.992       .  S
O1147      H1151   0.992       .  S
C1153      H1163   1.083       .  S
C1153      C1154   1.405       .  A
C1153      C1158   1.404       .  A
C1154      C1159   1.480       .  S
C1154      C1155   1.406       .  A
C1155      C1156   1.396       .  A
C1155      O1160   1.373       .  S
C1156      H1161   1.084       .  S
C1156      C1157   1.404       .  A
C1157      C1158   1.409       .  A
C1158      O1162   1.371       .  S
C1159      C1164   1.408       .  A
C1159      C1168   1.399       .  A
O1160      H1176   0.992       .  S
O1162      H1173   0.991       .  S
C1164      C1165   1.397       .  A
C1164      O1169   1.372       .  S
C1165      H1170   1.083       .  S
C1165      C1166   1.406       .  A
C1166      C1167   1.419       .  A
C1167      C1168   1.401       .  A
C1167      O1171   1.371       .  S
C1168      H1172   1.084       .  S
O1169      H1174   0.992       .  S
O1171      H1175   0.992       .  S
C1177      H1187   1.084       .  S
C1177      C1178   1.399       .  A
C1177      C1182   1.398       .  A
C1178      C1183   1.480       .  S
C1178      C1179   1.406       .  A
C1179      C1180   1.406       .  A
C1179      O1184   1.371       .  S
C1180      H1185   1.083       .  S
C1180      C1181   1.409       .  A
C1181      C1182   1.414       .  A
C1182      O1186   1.371       .  S
C1183      C1188   1.405       .  A
C1183      C1192   1.403       .  A
O1184      H1200   0.991       .  S
O1186      H1197   0.991       .  S
C1188      C1189   1.400       .  A
C1188      O1193   1.372       .  S
C1189      H1194   1.084       .  S
C1189      C1190   1.408       .  A
C1190      C1191   1.412       .  A
C1191      C1192   1.405       .  A
C1191      O1195   1.371       .  S
C1192      H1196   1.083       .  S
O1193      H1198   0.993       .  S
O1195      H1199   0.992       .  S
C1201      H1211   1.084       .  S
C1201      C1202   1.399       .  A
C1201      C1206   1.402       .  A
C1202      C1207   1.479       .  S
C1202      C1203   1.406       .  A
C1203      C1204   1.399       .  A
C1203      O1208   1.373       .  S
C1204      H1209   1.083       .  S
C1204      C1205   1.406       .  A
C1205      C1206   1.418       .  A
C1206      O1210   1.371       .  S
C1207      C1212   1.406       .  A
C1207      C1216   1.403       .  A
O1208      H1224   0.992       .  S
O1210      H1221   0.993       .  S
C1212      C1213   1.399       .  A
C1212      O1217   1.373       .  S
C1213      H1218   1.084       .  S
C1213      C1214   1.405       .  A
C1214      C1215   1.411       .  A
C1215      C1216   1.403       .  A
C1215      O1219   1.371       .  S
C1216      H1220   1.083       .  S
O1217      H1222   0.992       .  S
O1219      H1223   0.992       .  S
C1225      H1235   1.084   1_545  S
C1225      C1226   1.401       .  A
C1225      C1230   1.402       .  A
C1226      C1231   1.482       .  S
C1226      C1227   1.408       .  A
C1227      C1228   1.404       .  A
C1227      O1232   1.372       .  S
C1228      H1233   1.084       .  S
C1228      C1229   1.405       .  A
C1229      C1230   1.412       .  A
C1230      O1234   1.372       .  S
C1231      C1236   1.405       .  A
C1231      C1240   1.404       .  A
O1232      H1248   0.992       .  S
O1234      H1245   0.991       .  S
C1236      C1237   1.399       .  A
C1236      O1241   1.373       .  S
C1237      H1242   1.084       .  S
C1237      C1238   1.409   1_545  A
C1238      C1239   1.413       .  A
C1239      C1240   1.406   1_565  A
C1239      O1243   1.371       .  S
C1240      H1244   1.083   1_545  S
O1241      H1246   0.993       .  S
O1243      H1247   0.992       .  S
C1249      H1259   1.084       .  S
C1249      C1250   1.400       .  A
C1249      C1254   1.398       .  A
C1250      C1255   1.485       .  S
C1250      C1251   1.409       .  A
C1251      C1252   1.405       .  A
C1251      O1256   1.372       .  S
C1252      H1257   1.083       .  S
C1252      C1253   1.407       .  A
C1253      C1254   1.417       .  A
C1254      O1258   1.373       .  S
C1255      C1260   1.404       .  A
C1255      C1264   1.405       .  A
O1256      H1272   0.992       .  S
O1258      H1269   0.992       .  S
C1260      C1261   1.400       .  A
C1260      O1265   1.373       .  S
C1261      H1266   1.083       .  S
C1261      C1262   1.410       .  A
C1262      C1263   1.413       .  A
C1263      C1264   1.403       .  A
C1263      O1267   1.371       .  S
C1264      H1268   1.084       .  S
O1265      H1270   0.992       .  S
O1267      H1271   0.993       .  S
C1273      H1283   1.084       .  S
C1273      C1274   1.401       .  A
C1273      C1278   1.401       .  A
C1274      C1279   1.475       .  S
C1274      C1275   1.402       .  A
C1275      C1276   1.399       .  A
C1275      O1280   1.372       .  S
C1276      H1281   1.082       .  S
C1276      C1277   1.411       .  A
C1277      C1278   1.415       .  A
C1278      O1282   1.370       .  S
C1279      C1284   1.405       .  A
C1279      C1288   1.401       .  A
O1280      H1296   0.991       .  S
O1282      H1293   0.992       .  S
C1284      C1285   1.401       .  A
C1284      O1289   1.371       .  S
C1285      H1290   1.083       .  S
C1285      C1286   1.405       .  A
C1286      C1287   1.412       .  A
C1287      C1288   1.399       .  A
C1287      O1291   1.372       .  S
C1288      H1292   1.084       .  S
O1289      H1294   0.992       .  S
O1291      H1295   0.992       .  S
C1297      H1307   1.084       .  S
C1297      C1298   1.405       .  A
C1297      C1302   1.405       .  A
C1298      C1303   1.488       .  S
C1298      C1299   1.406       .  A
C1299      C1300   1.401       .  A
C1299      O1304   1.372   1_545  S
C1300      H1305   1.083       .  S
C1300      C1301   1.410       .  A
C1301      C1302   1.415       .  A
C1302      O1306   1.371       .  S
C1303      C1308   1.409   1_545  A
C1303      C1312   1.400       .  A
O1304      H1320   0.992       .  S
O1306      H1317   0.992       .  S
C1308      C1309   1.405       .  A
C1308      O1313   1.371       .  S
C1309      H1314   1.083       .  S
C1309      C1310   1.409       .  A
C1310      C1311   1.418   1_565  A
C1311      C1312   1.401       .  A
C1311      O1315   1.372       .  S
C1312      H1316   1.084       .  S
O1313      H1318   0.992       .  S
O1315      H1319   0.992       .  S
C1321      H1331   1.084       .  S
C1321      C1322   1.404       .  A
C1321      C1326   1.403       .  A
C1322      C1327   1.485       .  S
C1322      C1323   1.408       .  A
C1323      C1324   1.400       .  A
C1323      O1328   1.374       .  S
C1324      H1329   1.084       .  S
C1324      C1325   1.406       .  A
C1325      C1326   1.413       .  A
C1326      O1330   1.371       .  S
C1327      C1332   1.410       .  A
C1327      C1336   1.402       .  A
O1328      H1344   0.993       .  S
O1330      H1341   0.992       .  S
C1332      C1333   1.402       .  A
C1332      O1337   1.373       .  S
C1333      H1338   1.083       .  S
C1333      C1334   1.404       .  A
C1334      C1335   1.415       .  A
C1335      C1336   1.400       .  A
C1335      O1339   1.371       .  S
C1336      H1340   1.084       .  S
O1337      H1342   0.992       .  S
O1339      H1343   0.992       .  S
C1345      H1355   1.084       .  S
C1345      C1346   1.398       .  A
C1345      C1350   1.399       .  A
C1346      C1351   1.486       .  S
C1346      C1347   1.409       .  A
C1347      C1348   1.407       .  A
C1347      O1352   1.373       .  S
C1348      H1353   1.083       .  S
C1348      C1349   1.409       .  A
C1349      C1350   1.417       .  A
C1350      O1354   1.370       .  S
C1351      C1356   1.406       .  A
C1351      C1360   1.405       .  A
O1352      H1368   0.991       .  S
O1354      H1365   0.992       .  S
C1356      C1357   1.398       .  A
C1356      O1361   1.372       .  S
C1357      H1362   1.083       .  S
C1357      C1358   1.410       .  A
C1358      C1359   1.414       .  A
C1359      C1360   1.405       .  A
C1359      O1363   1.371       .  S
C1360      H1364   1.084       .  S
O1361      H1366   0.992       .  S
O1363      H1367   0.992       .  S
C1369      H1379   1.084       .  S
C1369      C1370   1.404       .  A
C1369      C1374   1.401       .  A
C1370      C1375   1.483       .  S
C1370      C1371   1.406       .  A
C1371      C1372   1.400       .  A
C1371      O1376   1.372   1_455  S
C1372      H1377   1.083       .  S
C1372      C1373   1.410       .  A
C1373      C1374   1.414       .  A
C1374      O1378   1.371       .  S
C1375      C1380   1.408   1_455  A
C1375      C1384   1.400       .  A
O1376      H1392   0.992       .  S
O1378      H1389   0.992       .  S
C1380      C1381   1.406       .  A
C1380      O1385   1.373       .  S
C1381      H1386   1.083       .  S
C1381      C1382   1.409       .  A
C1382      C1383   1.416   1_655  A
C1383      C1384   1.395       .  A
C1383      O1387   1.372       .  S
C1384      H1388   1.084       .  S
O1385      H1390   0.992       .  S
O1387      H1391   0.992       .  S
C1393      H1403   1.083       .  S
C1393      C1394   1.407       .  A
C1393      C1398   1.408       .  A
C1394      C1399   1.490       .  S
C1394      C1395   1.406       .  A
C1395      C1396   1.400       .  A
C1395      O1400   1.373       .  S
C1396      H1401   1.083       .  S
C1396      C1397   1.411       .  A
C1397      C1398   1.413       .  A
C1398      O1402   1.371       .  S
C1399      C1404   1.411       .  A
C1399      C1408   1.400       .  A
O1400      H1416   0.992       .  S
O1402      H1413   0.992       .  S
C1404      C1405   1.405       .  A
C1404      O1409   1.371       .  S
C1405      H1410   1.083       .  S
C1405      C1406   1.408       .  A
C1406      C1407   1.418       .  A
C1407      C1408   1.402       .  A
C1407      O1411   1.372       .  S
C1408      H1412   1.084       .  S
O1409      H1414   0.992       .  S
O1411      H1415   0.992       .  S
C1417      H1427   1.083       .  S
C1417      C1418   1.404       .  A
C1417      C1422   1.407       .  A
C1418      C1423   1.483       .  S
C1418      C1419   1.404       .  A
C1419      C1420   1.397       .  A
C1419      O1424   1.373       .  S
C1420      H1425   1.083       .  S
C1420      C1421   1.410       .  A
C1421      C1422   1.414       .  A
C1422      O1426   1.371       .  S
C1423      C1428   1.408       .  A
C1423      C1432   1.400       .  A
O1424      H1440   0.991       .  S
O1426      H1437   0.992       .  S
C1428      C1429   1.401       .  A
C1428      O1433   1.372       .  S
C1429      H1434   1.083       .  S
C1429      C1430   1.407       .  A
C1430      C1431   1.416       .  A
C1431      C1432   1.402       .  A
C1431      O1435   1.371       .  S
C1432      H1436   1.084       .  S
O1433      H1438   0.991       .  S
O1435      H1439   0.992       .  S
C1441      H1451   1.084       .  S
C1441      C1442   1.400       .  A
C1441      C1446   1.395       .  A
C1442      C1447   1.477       .  S
C1442      C1443   1.404       .  A
C1443      C1444   1.403       .  A
C1443      O1448   1.372       .  S
C1444      H1449   1.083       .  S
C1444      C1445   1.411       .  A
C1445      C1446   1.413       .  A
C1446      O1450   1.369       .  S
C1447      C1452   1.408       .  A
C1447      C1456   1.401       .  A
O1448      H1464   0.991       .  S
O1450      H1461   0.992       .  S
C1452      C1453   1.403       .  A
C1452      O1457   1.371       .  S
C1453      H1458   1.083       .  S
C1453      C1454   1.405       .  A
C1454      C1455   1.412       .  A
C1455      C1456   1.394       .  A
C1455      O1459   1.372       .  S
C1456      H1460   1.084       .  S
O1457      H1462   0.992       .  S
O1459      H1463   0.992       .  S
C1465      H1475   1.083       .  S
C1465      C1466   1.406       .  A
C1465      C1470   1.410   1_455  A
C1466      C1471   1.489       .  S
C1466      C1467   1.407       .  A
C1467      C1468   1.399       .  A
C1467      O1472   1.372       .  S
C1468      H1473   1.084       .  S
C1468      C1469   1.407   1_455  A
C1469      C1470   1.413       .  A
C1470      O1474   1.371       .  S
C1471      C1476   1.408       .  A
C1471      C1480   1.402       .  A
O1472      H1488   0.991       .  S
O1474      H1485   0.992       .  S
C1476      C1477   1.407       .  A
C1476      O1481   1.371       .  S
C1477      H1482   1.083       .  S
C1477      C1478   1.409       .  A
C1478      C1479   1.414       .  A
C1479      C1480   1.402       .  A
C1479      O1483   1.372       .  S
C1480      H1484   1.084   1_455  S
O1481      H1486   0.991       .  S
O1483      H1487   0.991       .  S
C1489      H1499   1.084       .  S
C1489      C1490   1.402       .  A
C1489      C1494   1.396       .  A
C1490      C1495   1.479       .  S
C1490      C1491   1.409       .  A
C1491      C1492   1.403       .  A
C1491      O1496   1.372       .  S
C1492      H1497   1.084       .  S
C1492      C1493   1.403       .  A
C1493      C1494   1.408       .  A
C1494      O1498   1.373       .  S
C1495      C1500   1.404       .  A
C1495      C1504   1.404       .  A
O1496      H1512   0.991       .  S
O1498      H1509   0.992       .  S
C1500      C1501   1.400       .  A
C1500      O1505   1.372       .  S
C1501      H1506   1.083       .  S
C1501      C1502   1.409       .  A
C1502      C1503   1.412       .  A
C1503      C1504   1.398       .  A
C1503      O1507   1.372       .  S
C1504      H1508   1.084       .  S
O1505      H1510   0.992       .  S
O1507      H1511   0.993       .  S
C1513      H1523   1.083       .  S
C1513      C1514   1.404       .  A
C1513      C1518   1.409       .  A
C1514      C1519   1.486       .  S
C1514      C1515   1.405       .  A
C1515      C1516   1.400       .  A
C1515      O1520   1.372       .  S
C1516      H1521   1.083       .  S
C1516      C1517   1.408       .  A
C1517      C1518   1.415       .  A
C1518      O1522   1.371       .  S
C1519      C1524   1.406       .  A
C1519      C1528   1.401       .  A
O1520      H1536   0.991       .  S
O1522      H1533   0.992       .  S
C1524      C1525   1.403       .  A
C1524      O1529   1.371       .  S
C1525      H1530   1.083       .  S
C1525      C1526   1.410       .  A
C1526      C1527   1.419       .  A
C1527      C1528   1.405       .  A
C1527      O1531   1.371       .  S
C1528      H1532   1.084       .  S
O1529      H1534   0.992       .  S
O1531      H1535   0.992       .  S
C1537      H1547   1.083       .  S
C1537      C1538   1.403       .  A
C1537      C1542   1.403       .  A
C1538      C1543   1.473       .  S
C1538      C1539   1.404       .  A
C1539      C1540   1.393       .  A
C1539      O1544   1.373       .  S
C1540      H1545   1.084       .  S
C1540      C1541   1.404       .  A
C1541      C1542   1.410       .  A
C1542      O1546   1.371       .  S
C1543      C1548   1.406       .  A
C1543      C1552   1.397       .  A
O1544      H1560   0.992       .  S
O1546      H1557   0.991       .  S
C1548      C1549   1.396       .  A
C1548      O1553   1.372       .  S
C1549      H1554   1.083       .  S
C1549      C1550   1.405       .  A
C1550      C1551   1.418       .  A
C1551      C1552   1.400       .  A
C1551      O1555   1.371       .  S
C1552      H1556   1.084       .  S
O1553      H1558   0.992       .  S
O1555      H1559   0.992       .  S
C1561      H1571   1.084       .  S
C1561      C1562   1.403       .  A
C1561      C1566   1.403       .  A
C1562      C1567   1.486       .  S
C1562      C1563   1.406       .  A
C1563      C1564   1.403       .  A
C1563      O1568   1.372       .  S
C1564      H1569   1.083       .  S
C1564      C1565   1.411       .  A
C1565      C1566   1.416       .  A
C1566      O1570   1.371       .  S
C1567      C1572   1.410       .  A
C1567      C1576   1.399       .  A
O1568      H1584   0.991       .  S
O1570      H1581   0.992       .  S
C1572      C1573   1.405       .  A
C1572      O1577   1.371       .  S
C1573      H1578   1.083   1_565  S
C1573      C1574   1.408       .  A
C1574      C1575   1.417       .  A
C1575      C1576   1.398       .  A
C1575      O1579   1.372       .  S
C1576      H1580   1.084       .  S
O1577      H1582   0.992       .  S
O1579      H1583   0.991   1_554  S
C1585      H1595   1.084       .  S
C1585      C1586   1.402       .  A
C1585      C1590   1.402       .  A
C1586      C1591   1.492       .  S
C1586      C1587   1.409       .  A
C1587      C1588   1.407       .  A
C1587      O1592   1.372       .  S
C1588      H1593   1.083       .  S
C1588      C1589   1.409       .  A
C1589      C1590   1.418       .  A
C1590      O1594   1.371       .  S
C1591      C1596   1.408       .  A
C1591      C1600   1.406       .  A
O1592      H1608   0.992       .  S
O1594      H1605   0.992       .  S
C1596      C1597   1.401       .  A
C1596      O1601   1.372       .  S
C1597      H1602   1.083       .  S
C1597      C1598   1.410       .  A
C1598      C1599   1.413       .  A
C1599      C1600   1.406       .  A
C1599      O1603   1.371   1_655  S
C1600      H1604   1.084       .  S
O1601      H1606   0.992       .  S
O1603      H1607   0.992       .  S
C1609      H1619   1.084       .  S
C1609      C1610   1.403       .  A
C1609      C1614   1.398       .  A
C1610      C1615   1.484       .  S
C1610      C1611   1.406       .  A
C1611      C1612   1.402       .  A
C1611      O1616   1.372       .  S
C1612      H1617   1.083       .  S
C1612      C1613   1.409       .  A
C1613      C1614   1.415       .  A
C1614      O1618   1.371       .  S
C1615      C1620   1.410       .  A
C1615      C1624   1.399       .  A
O1616      H1632   0.991       .  S
O1618      H1629   0.992       .  S
C1620      C1621   1.405       .  A
C1620      O1625   1.371       .  S
C1621      H1626   1.083       .  S
C1621      C1622   1.407       .  A
C1622      C1623   1.420       .  A
C1623      C1624   1.394       .  A
C1623      O1627   1.372       .  S
C1624      H1628   1.084       .  S
O1625      H1630   0.992       .  S
O1627      H1631   0.992       .  S
C1633      H1643   1.084       .  S
C1633      C1634   1.399       .  A
C1633      C1638   1.401       .  A
C1634      C1639   1.487       .  S
C1634      C1635   1.408       .  A
C1635      C1636   1.407       .  A
C1635      O1640   1.372       .  S
C1636      H1641   1.083       .  S
C1636      C1637   1.410       .  A
C1637      C1638   1.418       .  A
C1638      O1642   1.371       .  S
C1639      C1644   1.405       .  A
C1639      C1648   1.405       .  A
O1640      H1656   0.992       .  S
O1642      H1653   0.992       .  S
C1644      C1645   1.401       .  A
C1644      O1649   1.372       .  S
C1645      H1650   1.083       .  S
C1645      C1646   1.411       .  A
C1646      C1647   1.414       .  A
C1647      C1648   1.407       .  A
C1647      O1651   1.371   1_556  S
C1648      H1652   1.083       .  S
O1649      H1654   0.992       .  S
O1651      H1655   0.992       .  S
C1657      H1667   1.084       .  S
C1657      C1658   1.399       .  A
C1657      C1662   1.399       .  A
C1658      C1663   1.481       .  S
C1658      C1659   1.407       .  A
C1659      C1660   1.406       .  A
C1659      O1664   1.372   1_565  S
C1660      H1665   1.083   1_565  S
C1660      C1661   1.409       .  A
C1661      C1662   1.414       .  A
C1662      O1666   1.372       .  S
C1663      C1668   1.403       .  A
C1663      C1672   1.403       .  A
O1664      H1680   0.992       .  S
O1666      H1677   0.992       .  S
C1668      C1669   1.400       .  A
C1668      O1673   1.372       .  S
C1669      H1674   1.083       .  S
C1669      C1670   1.411       .  A
C1670      C1671   1.414       .  A
C1671      C1672   1.406       .  A
C1671      O1675   1.371       .  S
C1672      H1676   1.084       .  S
O1673      H1678   0.992       .  S
O1675      H1679   0.992       .  S
C1681      H1691   1.084       .  S
C1681      C1682   1.399       .  A
C1681      C1686   1.403       .  A
C1682      C1687   1.481       .  S
C1682      C1683   1.407       .  A
C1683      C1684   1.401       .  A
C1683      O1688   1.373       .  S
C1684      H1689   1.083       .  S
C1684      C1685   1.408       .  A
C1685      C1686   1.418       .  A
C1686      O1690   1.371       .  S
C1687      C1692   1.405       .  A
C1687      C1696   1.405       .  A
O1688      H1704   0.992       .  S
O1690      H1701   0.992       .  S
C1692      C1693   1.397       .  A
C1692      O1697   1.373       .  S
C1693      H1698   1.084       .  S
C1693      C1694   1.405       .  A
C1694      C1695   1.410       .  A
C1695      C1696   1.406       .  A
C1695      O1699   1.371       .  S
C1696      H1700   1.083       .  S
O1697      H1702   0.992       .  S
O1699      H1703   0.991       .  S
C1705      H1715   1.084       .  S
C1705      C1706   1.401       .  A
C1705      C1710   1.401       .  A
C1706      C1711   1.480       .  S
C1706      C1707   1.405       .  A
C1707      C1708   1.401       .  A
C1707      O1712   1.372       .  S
C1708      H1713   1.083       .  S
C1708      C1709   1.409       .  A
C1709      C1710   1.415       .  A
C1710      O1714   1.371       .  S
C1711      C1716   1.406       .  A
C1711      C1720   1.399       .  A
O1712      H1728   0.992       .  S
O1714      H1725   0.992       .  S
C1716      C1717   1.404       .  A
C1716      O1721   1.371       .  S
C1717      H1722   1.083   1_556  S
C1717      C1718   1.409       .  A
C1718      C1719   1.417       .  A
C1719      C1720   1.398       .  A
C1719      O1723   1.372       .  S
C1720      H1724   1.084       .  S
O1721      H1726   0.993       .  S
O1723      H1727   0.992       .  S
C1729      H1739   1.084       .  S
C1729      C1730   1.401       .  A
C1729      C1734   1.399       .  A
C1730      C1735   1.470       .  S
C1730      C1731   1.400       .  A
C1731      C1732   1.397       .  A
C1731      O1736   1.372       .  S
C1732      H1737   1.083       .  S
C1732      C1733   1.411       .  A
C1733      C1734   1.411       .  A
C1734      O1738   1.370       .  S
C1735      C1740   1.406       .  A
C1735      C1744   1.398       .  A
O1736      H1752   0.991       .  S
O1738      H1749   0.992       .  S
C1740      C1741   1.403       .  A
C1740      O1745   1.371       .  S
C1741      H1746   1.084       .  S
C1741      C1742   1.406       .  A
C1742      C1743   1.410       .  A
C1743      C1744   1.393       .  A
C1743      O1747   1.371       .  S
C1744      H1748   1.084       .  S
O1745      H1750   0.992       .  S
O1747      H1751   0.992       .  S
C1753      H1763   1.083       .  S
C1753      C1754   1.402       .  A
C1753      C1758   1.406       .  A
C1754      C1759   1.478       .  S
C1754      C1755   1.403       .  A
C1755      C1756   1.398       .  A
C1755      O1760   1.372       .  S
C1756      H1761   1.083       .  S
C1756      C1757   1.411       .  A
C1757      C1758   1.414       .  A
C1758      O1762   1.371       .  S
C1759      C1764   1.404       .  A
C1759      C1768   1.401       .  A
O1760      H1776   0.992       .  S
O1762      H1773   0.992   1_655  S
C1764      C1765   1.401       .  A
C1764      O1769   1.371       .  S
C1765      H1770   1.083       .  S
C1765      C1766   1.410       .  A
C1766      C1767   1.415       .  A
C1767      C1768   1.402       .  A
C1767      O1771   1.371       .  S
C1768      H1772   1.084       .  S
O1769      H1774   0.991       .  S
O1771      H1775   0.992       .  S
C1777      H1787   1.084       .  S
C1777      C1778   1.402       .  A
C1777      C1782   1.397       .  A
C1778      C1783   1.472       .  S
C1778      C1779   1.401       .  A
C1779      C1780   1.399       .  A
C1779      O1784   1.372       .  S
C1780      H1785   1.083       .  S
C1780      C1781   1.412       .  A
C1781      C1782   1.411       .  A
C1782      O1786   1.370       .  S
C1783      C1788   1.407       .  A
C1783      C1792   1.399       .  A
O1784      H1800   0.990       .  S
O1786      H1797   0.991       .  S
C1788      C1789   1.403       .  A
C1788      O1793   1.372       .  S
C1789      H1794   1.084       .  S
C1789      C1790   1.406       .  A
C1790      C1791   1.410       .  A
C1791      C1792   1.393       .  A
C1791      O1795   1.372       .  S
C1792      H1796   1.084       .  S
O1793      H1798   0.992       .  S
O1795      H1799   0.991       .  S
C1801      H1811   1.084       .  S
C1801      C1802   1.404       .  A
C1801      C1806   1.400       .  A
C1802      C1807   1.486       .  S
C1802      C1803   1.409       .  A
C1803      C1804   1.402       .  A
C1803      O1808   1.372       .  S
C1804      H1809   1.083       .  S
C1804      C1805   1.405       .  A
C1805      C1806   1.411       .  A
C1806      O1810   1.372       .  S
C1807      C1812   1.409       .  A
C1807      C1816   1.400       .  A
O1808      H1824   0.991       .  S
O1810      H1821   0.992       .  S
C1812      C1813   1.404       .  A
C1812      O1817   1.371       .  S
C1813      H1818   1.083       .  S
C1813      C1814   1.408       .  A
C1814      C1815   1.416       .  A
C1815      C1816   1.397       .  A
C1815      O1819   1.372       .  S
C1816      H1820   1.084       .  S
O1817      H1822   0.992       .  S
O1819      H1823   0.992       .  S
C1825      H1835   1.084       .  S
C1825      C1826   1.404       .  A
C1825      C1830   1.404       .  A
C1826      C1831   1.482       .  S
C1826      C1827   1.408       .  A
C1827      C1828   1.400       .  A
C1827      O1832   1.373       .  S
C1828      H1833   1.084       .  S
C1828      C1829   1.402       .  A
C1829      C1830   1.410       .  A
C1830      O1834   1.372       .  S
C1831      C1836   1.403       .  A
C1831      C1840   1.405       .  A
O1832      H1848   0.992       .  S
O1834      H1845   0.991       .  S
C1836      C1837   1.395       .  A
C1836      O1841   1.373       .  S
C1837      H1842   1.083       .  S
C1837      C1838   1.411       .  A
C1838      C1839   1.414       .  A
C1839      C1840   1.407       .  A
C1839      O1843   1.370       .  S
C1840      H1844   1.083       .  S
O1841      H1846   0.992       .  S
O1843      H1847   0.991       .  S
C1849      H1859   1.084       .  S
C1849      C1850   1.402       .  A
C1849      C1854   1.402       .  A
C1850      C1855   1.479       .  S
C1850      C1851   1.403       .  A
C1851      C1852   1.400       .  A
C1851      O1856   1.372       .  S
C1852      H1857   1.083       .  S
C1852      C1853   1.410       .  A
C1853      C1854   1.414       .  A
C1854      O1858   1.371       .  S
C1855      C1860   1.407       .  A
C1855      C1864   1.398       .  A
O1856      H1872   0.992       .  S
O1858      H1869   0.992       .  S
C1860      C1861   1.404       .  A
C1860      O1865   1.371       .  S
C1861      H1866   1.083       .  S
C1861      C1862   1.408       .  A
C1862      C1863   1.418       .  A
C1863      C1864   1.397       .  A
C1863      O1867   1.372       .  S
C1864      H1868   1.084       .  S
O1865      H1870   0.992       .  S
O1867      H1871   0.992       .  S
C1873      H1883   1.084       .  S
C1873      C1874   1.400       .  A
C1873      C1878   1.397       .  A
C1874      C1879   1.481       .  S
C1874      C1875   1.406       .  A
C1875      C1876   1.404       .  A
C1875      O1880   1.371       .  S
C1876      H1881   1.083       .  S
C1876      C1877   1.410       .  A
C1877      C1878   1.417       .  A
C1878      O1882   1.371       .  S
C1879      C1884   1.408       .  A
C1879      C1888   1.400       .  A
O1880      H1896   0.991       .  S
O1882      H1893   0.992       .  S
C1884      C1885   1.405       .  A
C1884      O1889   1.371       .  S
C1885      H1890   1.083       .  S
C1885      C1886   1.408       .  A
C1886      C1887   1.414       .  A
C1887      C1888   1.395       .  A
C1887      O1891   1.371       .  S
C1888      H1892   1.084       .  S
O1889      H1894   0.992       .  S
O1891      H1895   0.992       .  S
C1897      H1907   1.084       .  S
C1897      C1898   1.403       .  A
C1897      C1902   1.399       .  A
C1898      C1903   1.479       .  S
C1898      C1899   1.404       .  A
C1899      C1900   1.400       .  A
C1899      O1904   1.372       .  S
C1900      H1905   1.083       .  S
C1900      C1901   1.410       .  A
C1901      C1902   1.414       .  A
C1902      O1906   1.371       .  S
C1903      C1908   1.409       .  A
C1903      C1912   1.399       .  A
O1904      H1920   0.991       .  S
O1906      H1917   0.992       .  S
C1908      C1909   1.404       .  A
C1908      O1913   1.371       .  S
C1909      H1914   1.083       .  S
C1909      C1910   1.406       .  A
C1910      C1911   1.412       .  A
C1911      C1912   1.393       .  A
C1911      O1915   1.372       .  S
C1912      H1916   1.084       .  S
O1913      H1918   0.992       .  S
O1915      H1919   0.992       .  S
C1921      H1931   1.084       .  S
C1921      C1922   1.402       .  A
C1921      C1926   1.400       .  A
C1922      C1927   1.480       .  S
C1922      C1923   1.404       .  A
C1923      C1924   1.402       .  A
C1923      O1928   1.371       .  S
C1924      H1929   1.083       .  S
C1924      C1925   1.410       .  A
C1925      C1926   1.413       .  A
C1926      O1930   1.371       .  S
C1927      C1932   1.409       .  A
C1927      C1936   1.401       .  A
O1928      H1944   0.991       .  S
O1930      H1941   0.992       .  S
C1932      C1933   1.405       .  A
C1932      O1937   1.371       .  S
C1933      H1938   1.083       .  S
C1933      C1934   1.404       .  A
C1934      C1935   1.408       .  A
C1935      C1936   1.398       .  A
C1935      O1939   1.372       .  S
C1936      H1940   1.084       .  S
O1937      H1942   0.992       .  S
O1939      H1943   0.991       .  S
C1945      H1955   1.084       .  S
C1945      C1946   1.399       .  A
C1945      C1950   1.395       .  A
C1946      C1951   1.477       .  S
C1946      C1947   1.407       .  A
C1947      C1948   1.404       .  A
C1947      O1952   1.372       .  S
C1948      H1953   1.083       .  S
C1948      C1949   1.406       .  A
C1949      C1950   1.412       .  A
C1950      O1954   1.372       .  S
C1951      C1956   1.403       .  A
C1951      C1960   1.402       .  A
O1952      H1968   0.990       .  S
O1954      H1965   0.992       .  S
C1956      C1957   1.398       .  A
C1956      O1961   1.372       .  S
C1957      H1962   1.083       .  S
C1957      C1958   1.409       .  A
C1958      C1959   1.415       .  A
C1959      C1960   1.401       .  A
C1959      O1963   1.371       .  S
C1960      H1964   1.084       .  S
O1961      H1966   0.992       .  S
O1963      H1967   0.992       .  S
C1969      H1979   1.084       .  S
C1969      C1970   1.401       .  A
C1969      C1974   1.401       .  A
C1970      C1975   1.474       .  S
C1970      C1971   1.402       .  A
C1971      C1972   1.399       .  A
C1971      O1976   1.371       .  S
C1972      H1977   1.083       .  S
C1972      C1973   1.408       .  A
C1973      C1974   1.414       .  A
C1974      O1978   1.372       .  S
C1975      C1980   1.407       .  A
C1975      C1984   1.397       .  A
O1976      H1992   0.991       .  S
O1978      H1989   0.992       .  S
C1980      C1981   1.404       .  A
C1980      O1985   1.371       .  S
C1981      H1986   1.083       .  S
C1981      C1982   1.406       .  A
C1982      C1983   1.416       .  A
C1983      C1984   1.396       .  A
C1983      O1987   1.372       .  S
C1984      H1988   1.084       .  S
O1985      H1990   0.992       .  S
O1987      H1991   0.992       .  S
C1993      H2003   1.084       .  S
C1993      C1994   1.399       .  A
C1993      C1998   1.399       .  A
C1994      C1999   1.475       .  S
C1994      C1995   1.403       .  A
C1995      C1996   1.401       .  A
C1995      O2000   1.371       .  S
C1996      H2001   1.083       .  S
C1996      C1997   1.409       .  A
C1997      C1998   1.417       .  A
C1998      O2002   1.372       .  S
C1999      C2004   1.406       .  A
C1999      C2008   1.398       .  A
O2000      H2016   0.991       .  S
O2002      H2013   0.992       .  S
C2004      C2005   1.405       .  A
C2004      O2009   1.371       .  S
C2005      H2010   1.083       .  S
C2005      C2006   1.407       .  A
C2006      C2007   1.415       .  A
C2007      C2008   1.396       .  A
C2007      O2011   1.373       .  S
C2008      H2012   1.084       .  S
O2009      H2014   0.991       .  S
O2011      H2015   0.992       .  S
C2017      H2027   1.084       .  S
C2017      C2018   1.398       .  A
C2017      C2022   1.400       .  A
C2018      C2023   1.477       .  S
C2018      C2019   1.406       .  A
C2019      C2020   1.400       .  A
C2019      O2024   1.373       .  S
C2020      H2025   1.083       .  S
C2020      C2021   1.408       .  A
C2021      C2022   1.415       .  A
C2022      O2026   1.370       .  S
C2023      C2028   1.404       .  A
C2023      C2032   1.404       .  A
O2024      H2040   0.992       .  S
O2026      H2037   0.992       .  S
C2028      C2029   1.395       .  A
C2028      O2033   1.372       .  S
C2029      H2034   1.084       .  S
C2029      C2030   1.407       .  A
C2030      C2031   1.411       .  A
C2031      C2032   1.404       .  A
C2031      O2035   1.371       .  S
C2032      H2036   1.083       .  S
O2033      H2038   0.992       .  S
O2035      H2039   0.992       .  S
C2041      H2051   1.083       .  S
C2041      C2042   1.402       .  A
C2041      C2046   1.406       .  A
C2042      C2047   1.473       .  S
C2042      C2043   1.401       .  A
C2043      C2044   1.393       .  A
C2043      O2048   1.372       .  S
C2044      H2049   1.083       .  S
C2044      C2045   1.409       .  A
C2045      C2046   1.415       .  A
C2046      O2050   1.371       .  S
C2047      C2052   1.405       .  A
C2047      C2056   1.401       .  A
O2048      H2064   0.992       .  S
O2050      H2061   0.992       .  S
C2052      C2053   1.400       .  A
C2052      O2057   1.371       .  S
C2053      H2058   1.084       .  S
C2053      C2054   1.405       .  A
C2054      C2055   1.409       .  A
C2055      C2056   1.399       .  A
C2055      O2059   1.372       .  S
C2056      H2060   1.084       .  S
O2057      H2062   0.992       .  S
O2059      H2063   0.991       .  S
C2065      H2075   1.084       .  S
C2065      C2066   1.400       .  A
C2065      C2070   1.397       .  A
C2066      C2071   1.478       .  S
C2066      C2067   1.404       .  A
C2067      C2068   1.403       .  A
C2067      O2072   1.371       .  S
C2068      H2073   1.083       .  S
C2068      C2069   1.411       .  A
C2069      C2070   1.413       .  A
C2070      O2074   1.370       .  S
C2071      C2076   1.407       .  A
C2071      C2080   1.399       .  A
O2072      H2088   0.991       .  S
O2074      H2085   0.992       .  S
C2076      C2077   1.405       .  A
C2076      O2081   1.371       .  S
C2077      H2082   1.083       .  S
C2077      C2078   1.407       .  A
C2078      C2079   1.414       .  A
C2079      C2080   1.396       .  A
C2079      O2083   1.372       .  S
C2080      H2084   1.084       .  S
O2081      H2086   0.992       .  S
O2083      H2087   0.992       .  S
C2089      H2099   1.082       .  S
C2089      C2090   1.403       .  A
C2089      C2094   1.396       .  A
C2090      C2095   1.495       .  S
C2090      C2091   1.414       .  A
C2091      C2092   1.406       .  A
C2091      O2096   1.371       .  S
C2092      H2097   1.083       .  S
C2092      C2093   1.405       .  A
C2093      C2094   1.416       .  A
C2094      O2098   1.372       .  S
C2095      C2100   1.415       .  A
C2095      C2104   1.407       .  A
O2096      H2112   0.991       .  S
O2098      H2109   0.992       .  S
C2100      C2101   1.403       .  A
C2100      O2105   1.374       .  S
C2101      H2106   1.084       .  S
C2101      C2102   1.401       .  A
C2102      C2103   1.406       .  A
C2103      C2104   1.400       .  A
C2103      O2107   1.372       .  S
C2104      H2108   1.082       .  S
O2105      H2110   0.992       .  S
O2107      H2111   0.992       .  S
C2113      H2123   1.084       .  S
C2113      C2114   1.406       .  A
C2113      C2118   1.402       .  A
C2114      C2119   1.485       .  S
C2114      C2115   1.407       .  A
C2115      C2116   1.398       .  A
C2115      O2120   1.373       .  S
C2116      H2121   1.083       .  S
C2116      C2117   1.407       .  A
C2117      C2118   1.410       .  A
C2118      O2122   1.371       .  S
C2119      C2124   1.410       .  A
C2119      C2128   1.401       .  A
O2120      H2136   0.992       .  S
O2122      H2133   0.992       .  S
C2124      C2125   1.401       .  A
C2124      O2129   1.371       .  S
C2125      H2130   1.083       .  S
C2125      C2126   1.408       .  A
C2126      C2127   1.416       .  A
C2127      C2128   1.397       .  A
C2127      O2131   1.372       .  S
C2128      H2132   1.084       .  S
O2129      H2134   0.992       .  S
O2131      H2135   0.992       .  S
C2137      H2147   1.083       .  S
C2137      C2138   1.403       .  A
C2137      C2142   1.406       .  A
C2138      C2143   1.496       .  S
C2138      C2139   1.412       .  A
C2139      C2140   1.405       .  A
C2139      O2144   1.373       .  S
C2140      H2145   1.083       .  S
C2140      C2141   1.407       .  A
C2141      C2142   1.417       .  A
C2142      O2146   1.371       .  S
C2143      C2148   1.408       .  A
C2143      C2152   1.409       .  A
O2144      H2160   0.992       .  S
O2146      H2157   0.992       .  S
C2148      C2149   1.397       .  A
C2148      O2153   1.372       .  S
C2149      H2154   1.083       .  S
C2149      C2150   1.407       .  A
C2150      C2151   1.413       .  A
C2151      C2152   1.410       .  A
C2151      O2155   1.371       .  S
C2152      H2156   1.083       .  S
O2153      H2158   0.992       .  S
O2155      H2159   0.991       .  S
C2161      H2171   1.084       .  S
C2161      C2162   1.401       .  A
C2161      C2166   1.404       .  A
C2162      C2167   1.482       .  S
C2162      C2163   1.405       .  A
C2163      C2164   1.402       .  A
C2163      O2168   1.372       .  S
C2164      H2169   1.083       .  S
C2164      C2165   1.408       .  A
C2165      C2166   1.416       .  A
C2166      O2170   1.372       .  S
C2167      C2172   1.405       .  A
C2167      C2176   1.402       .  A
O2168      H2184   0.991       .  S
O2170      H2181   0.991       .  S
C2172      C2173   1.400       .  A
C2172      O2177   1.372       .  S
C2173      H2178   1.083       .  S
C2173      C2174   1.407       .  A
C2174      C2175   1.415       .  A
C2175      C2176   1.407       .  A
C2175      O2179   1.371       .  S
C2176      H2180   1.083       .  S
O2177      H2182   0.992       .  S
O2179      H2183   0.992       .  S
C2185      H2195   1.084       .  S
C2185      C2186   1.404       .  A
C2185      C2190   1.398       .  A
C2186      C2191   1.484       .  S
C2186      C2187   1.408       .  A
C2187      C2188   1.403       .  A
C2187      O2192   1.372       .  S
C2188      H2193   1.083       .  S
C2188      C2189   1.407       .  A
C2189      C2190   1.412       .  A
C2190      O2194   1.372       .  S
C2191      C2196   1.408       .  A
C2191      C2200   1.400       .  A
O2192      H2208   0.992       .  S
O2194      H2205   0.992       .  S
C2196      C2197   1.404       .  A
C2196      O2201   1.371       .  S
C2197      H2202   1.083       .  S
C2197      C2198   1.409       .  A
C2198      C2199   1.417       .  A
C2199      C2200   1.395       .  A
C2199      O2203   1.372       .  S
C2200      H2204   1.084       .  S
O2201      H2206   0.992       .  S
O2203      H2207   0.992       .  S
C2209      H2219   1.084       .  S
C2209      C2210   1.402       .  A
C2209      C2214   1.405       .  A
C2210      C2215   1.485       .  S
C2210      C2211   1.407       .  A
C2211      C2212   1.400       .  A
C2211      O2216   1.373       .  S
C2212      H2217   1.083       .  S
C2212      C2213   1.406       .  A
C2213      C2214   1.419       .  A
C2214      O2218   1.372       .  S
C2215      C2220   1.404       .  A
C2215      C2224   1.405       .  A
O2216      H2232   0.992       .  S
O2218      H2229   0.992       .  S
C2220      C2221   1.394       .  A
C2220      O2225   1.372       .  S
C2221      H2226   1.083       .  S
C2221      C2222   1.409       .  A
C2222      C2223   1.415       .  A
C2223      C2224   1.409       .  A
C2223      O2227   1.371       .  S
C2224      H2228   1.083       .  S
O2225      H2230   0.992       .  S
O2227      H2231   0.991       .  S
C2233      H2243   1.084       .  S
C2233      C2234   1.400       .  A
C2233      C2238   1.399       .  A
C2234      C2239   1.480       .  S
C2234      C2235   1.405       .  A
C2235      C2236   1.403       .  A
C2235      O2240   1.371       .  S
C2236      H2241   1.083       .  S
C2236      C2237   1.409       .  A
C2237      C2238   1.415       .  A
C2238      O2242   1.371       .  S
C2239      C2244   1.406       .  A
C2239      C2248   1.398       .  A
O2240      H2256   0.991       .  S
O2242      H2253   0.992       .  S
C2244      C2245   1.406       .  A
C2244      O2249   1.371       .  S
C2245      H2250   1.083       .  S
C2245      C2246   1.410       .  A
C2246      C2247   1.418       .  A
C2247      C2248   1.396       .  A
C2247      O2251   1.371       .  S
C2248      H2252   1.084       .  S
O2249      H2254   0.992       .  S
O2251      H2255   0.992       .  S
C2257      H2267   1.084       .  S
C2257      C2258   1.402       .  A
C2257      C2262   1.403       .  A
C2258      C2263   1.476       .  S
C2258      C2259   1.404       .  A
C2259      C2260   1.399       .  A
C2259      O2264   1.371       .  S
C2260      H2265   1.083       .  S
C2260      C2261   1.408       .  A
C2261      C2262   1.411       .  A
C2262      O2266   1.371       .  S
C2263      C2268   1.406       .  A
C2263      C2272   1.400       .  A
O2264      H2280   0.991       .  S
O2266      H2277   0.992       .  S
C2268      C2269   1.404       .  A
C2268      O2273   1.371       .  S
C2269      H2274   1.083       .  S
C2269      C2270   1.407       .  A
C2270      C2271   1.411       .  A
C2271      C2272   1.397       .  A
C2271      O2275   1.372       .  S
C2272      H2276   1.084       .  S
O2273      H2278   0.992       .  S
O2275      H2279   0.992       .  S
C2281      H2291   1.084       .  S
C2281      C2282   1.403       .  A
C2281      C2286   1.406       .  A
C2282      C2287   1.489       .  S
C2282      C2283   1.408       .  A
C2283      C2284   1.402       .  A
C2283      O2288   1.373       .  S
C2284      H2289   1.083       .  S
C2284      C2285   1.409       .  A
C2285      C2286   1.418       .  A
C2286      O2290   1.371       .  S
C2287      C2292   1.407       .  A
C2287      C2296   1.405       .  A
O2288      H2304   0.992       .  S
O2290      H2301   0.992       .  S
C2292      C2293   1.398       .  A
C2292      O2297   1.372       .  S
C2293      H2298   1.083       .  S
C2293      C2294   1.408       .  A
C2294      C2295   1.414       .  A
C2295      C2296   1.407       .  A
C2295      O2299   1.371       .  S
C2296      H2300   1.083       .  S
O2297      H2302   0.992       .  S
O2299      H2303   0.992       .  S
