geometry optimzed in LAMMPS
_audit_creation_date              2020-11-30 
_audit_creation_method            'lammps2cif' 
_symmetry_space_group_name_H-M    'P1' 
_symmetry_Int_Tables_number       1 
_symmetry_cell_setting            triclinic 
loop_ 
_symmetry_equiv_pos_as_xyz 
  x,y,z 
_cell_length_a                    56.09485119 
_cell_length_b                    42.493234886855596 
_cell_length_c                    34.92753869149645 
_cell_angle_alpha                 89.90596262899516 
_cell_angle_beta                  90.1097061688802 
_cell_angle_gamma                 90.12408223788212 
loop_ 
_atom_site_label 
_atom_site_type_symbol 
_atom_site_fract_x 
_atom_site_fract_y 
_atom_site_fract_z 
_atom_site_charge 
O1          O  0.46316575  0.43500936  0.42863645    -0.75400
O2          O  0.43520488  0.46314460  0.46143220    -0.54300
C3          C  0.44152059  0.44169496  0.43759291     0.78400
O4          O  0.04450475  0.44396844  0.07770645    -0.60000
O5          O  0.07166022  0.46880156  0.03941889    -0.53000
C6          C  0.06591648  0.44950860  0.06627215     0.70400
O7          O  0.46450039  0.43618436  0.07269085    -0.74500
O8          O  0.43587517  0.46708357  0.04528828    -0.55100
C9          C  0.44268578  0.44403450  0.06655421     0.76400
O10         O  0.04341805  0.43645452  0.42761149    -0.59700
O11         O  0.07106973  0.46723830  0.45802049    -0.52800
C12         C  0.06500200  0.44425487  0.43611862     0.73000
Zr13       Zr  0.50309899  0.45348268  0.44446042     2.54700
O14         O  0.50333731  0.39621684  0.44623911    -0.80200
O15         O  0.00331032  0.45440999  0.37346395    -0.93700
Zr16       Zr  0.50402493  0.45720646  0.05882867     2.64700
O17         O  0.50570316  0.40021750  0.06692673    -0.98600
O18         O  0.00235522  0.46635181  0.12871298    -0.80700
O19         O  0.48073042  0.45441894  0.50202173    -0.84000
O20         O  0.02630396  0.45581726  0.49985346    -2.18700
O21         O  0.04087374  0.06373671  0.41936874    -0.67400
O22         O  0.06948770  0.03912812  0.45492836    -0.52000
C23         C  0.06268502  0.05891244  0.42919774     0.71300
O24         O  0.46325860  0.06931152  0.06788013    -0.60300
O25         O  0.43531862  0.03887865  0.03843918    -0.52300
C26         C  0.44148201  0.06199079  0.06010475     0.73200
O27         O  0.04304665  0.07083812  0.06583869    -0.71700
O28         O  0.07113911  0.03935444  0.03825419    -0.50400
C29         C  0.06473205  0.06308779  0.05859415     0.74500
O30         O  0.46126154  0.06295408  0.42473436    -0.67100
O31         O  0.43368077  0.03484090  0.45836054    -0.54300
C32         C  0.43964901  0.05597818  0.43370471     0.72900
Zr33       Zr  0.00147464  0.04587769  0.43934311     2.77500
O34         O  0.99991204  0.10286092  0.43216569    -0.97800
O35         O  0.99849038  0.03736895  0.37054941    -0.78600
Zr36       Zr  0.00322621  0.05022480  0.05353337     2.70100
O37         O  0.00302654  0.10728831  0.05963222    -0.79900
O38         O  0.00400880  0.04323741  0.12273619    -0.99000
Zr39       Zr  0.45715571  0.00158847  0.99941888     2.21500
Zr40       Zr  0.04856017  0.50356317  0.49728932     2.11100
O41         O  0.02573619  0.04957493  0.99617727    -2.47600
O42         O  0.47994010  0.04879285  0.99734270    -0.79700
O43         O  0.02593672  0.50062537  0.43947195    -0.71900
O44         O  0.47964417  0.00313659  0.05737573    -2.32800
O45         O  0.47876892  0.99936175  0.44174172    -2.29000
O46         O  0.02696244  0.50487669  0.05744972    -0.73600
H47         H  0.03627846  0.43762371  0.00331221     0.78400
H48         H  0.46931787  0.00364596  0.07945567     0.79500
H49         H  0.03455804  0.06875237  0.49418645     0.81700
H50         H  0.46814825  0.99843588  0.41997309     0.79300
H51         H  0.51852154  0.46811772  0.13604778     0.42300
H52         H  0.02044048  0.04898143  0.13049177     0.41300
H53         H  0.50803771  0.11439499  0.03522677     0.41000
H54         H  0.01212631  0.11101079  0.45011856     0.38900
H55         H  0.01450845  0.02998201  0.36288131     0.42000
H56         H  0.49075720  0.46986609  0.36756769     0.36800
H57         H  0.50718194  0.39094482  0.47317034     0.42900
H58         H  0.01854381  0.39446347  0.04806720     0.39400
H59         H  0.00646697  0.10711883  0.40636993     0.44300
H60         H  0.49726796  0.43404739  0.36687448     0.43000
H61         H  0.51304202  0.39686205  0.09241509     0.43100
H62         H  0.99398718  0.06049681  0.13273386     0.43500
O63         O  0.29383236  0.31701625  0.17879755    -0.75400
O64         O  0.32118633  0.28759173  0.21136180    -0.54300
C65         C  0.31537357  0.30935009  0.18739298     0.78400
O66         O  0.21275803  0.31409311  0.32625111    -0.60000
O67         O  0.18476825  0.28891996  0.28997288    -0.53000
C68         C  0.19113556  0.30903671  0.31551383     0.70400
O69         O  0.29280858  0.31411277  0.32544274    -0.74500
O70         O  0.32066402  0.28564968  0.29301795    -0.55100
C71         C  0.31447424  0.30714972  0.31687886     0.76400
O72         O  0.21364124  0.32005066  0.17889720    -0.59700
O73         O  0.18521194  0.29007116  0.20812774    -0.52800
C74         C  0.19180308  0.31264056  0.18593392     0.73000
Zr75       Zr  0.25341047  0.30141410  0.19582227     2.54700
O76         O  0.25492445  0.35855025  0.20067295    -0.80200
O77         O  0.25203959  0.30326201  0.12618803    -0.93700
Zr78       Zr  0.25268585  0.29631171  0.30970848     2.64700
O79         O  0.25337566  0.35302340  0.31980709    -0.98600
O80         O  0.25258250  0.28602495  0.37827810    -0.80700
O81         O  0.27599584  0.29898395  0.25320708    -0.84000
O82         O  0.23027875  0.30025901  0.25231897    -2.18700
O83         O  0.21154635  0.19314093  0.17124254    -0.67400
O84         O  0.18405267  0.21990491  0.20640030    -0.52000
C85         C  0.18992982  0.19947750  0.18104116     0.71300
O86         O  0.29092723  0.18478680  0.31948056    -0.60300
O87         O  0.31975152  0.21456442  0.29112403    -0.52300
C88         C  0.31284328  0.19158730  0.31248698     0.73200
O89         O  0.21055961  0.18814568  0.32025740    -0.71700
O90         O  0.18344805  0.21851569  0.28849076    -0.50400
C91         C  0.18907994  0.19626839  0.31173621     0.74500
O92         O  0.29223969  0.19091599  0.17241712    -0.67100
O93         O  0.32002061  0.21601225  0.20921781    -0.54300
C94         C  0.31388817  0.19611777  0.18322889     0.72900
Zr95       Zr  0.25213050  0.20845506  0.18972955     2.77500
O96         O  0.25167644  0.15139897  0.18297465    -0.97800
O97         O  0.25280502  0.21659363  0.12073797    -0.78600
Zr98       Zr  0.25121596  0.20373552  0.30387587     2.70100
O99         O  0.24941022  0.14660467  0.30043703    -0.79900
O100        O  0.25231660  0.20141273  0.37356723    -0.99000
Zr101      Zr  0.29821873  0.25140127  0.25078178     2.21500
Zr102      Zr  0.20675653  0.25361912  0.24876983     2.11100
O103        O  0.22889249  0.20580877  0.24634264    -2.47600
O104        O  0.27458729  0.20484566  0.24731265    -0.79700
O105        O  0.22943235  0.25550204  0.19120150    -0.71900
O106        O  0.27541257  0.24945063  0.30840910    -2.32800
O107        O  0.27610608  0.25441986  0.19244075    -2.29000
O108        O  0.22844353  0.25059069  0.30742655    -0.73600
H109        H  0.22046029  0.31890341  0.25308325     0.78400
H110        H  0.28559838  0.24835613  0.33071193     0.79500
H111        H  0.21845475  0.18771505  0.24525336     0.81700
H112        H  0.28661106  0.25504547  0.17058188     0.79300
H113        H  0.23629919  0.27817151  0.38369893     0.42300
H114        H  0.23755969  0.21212817  0.38190456     0.41300
H115        H  0.25443213  0.14163670  0.27397832     0.41000
H116        H  0.24018791  0.14396676  0.20250099     0.38900
H117        H  0.24701551  0.19646187  0.10988745     0.42000
H118        H  0.26332910  0.28679806  0.11778380     0.36800
H119        H  0.26080501  0.36262670  0.22695267     0.42900
H120        H  0.24121835  0.36151027  0.30200000     0.39400
H121        H  0.24363717  0.14742139  0.15818243     0.44300
H122        H  0.25992006  0.32336459  0.11937457     0.43000
H123        H  0.24653311  0.35611857  0.34564065     0.43100
H124        H  0.24956682  0.17893477  0.37969246     0.43500
C125        C  0.08351775  0.08355700  0.07429571    -0.20000
C126        C  0.08234073  0.11651187  0.06949206     0.36300
C127        C  0.09992211  0.13560928  0.08624290    -0.25900
C128        C  0.11861520  0.12228977  0.10726806     0.02700
C129        C  0.12011656  0.08936314  0.11143254     0.27500
C130        C  0.10251911  0.07020401  0.09472129    -0.25100
N131        N  0.06346710  0.13034227  0.04723866    -0.82400
H132        H  0.09907631  0.16095527  0.08303197     0.13300
C133        C  0.13637279  0.14318925  0.12533308     0.02700
N134        N  0.13933872  0.07567173  0.13298800    -0.81000
H135        H  0.10334611  0.04488272  0.09822336     0.18100
C136        C  0.13395976  0.15060131  0.16413898    -0.25900
C137        C  0.15078397  0.16948469  0.18275194     0.36200
C138        C  0.17062774  0.18136722  0.16210231    -0.19900
C139        C  0.17279276  0.17409548  0.12298488    -0.25100
C140        C  0.15573571  0.15522873  0.10432566     0.27500
H141        H  0.11901283  0.14126705  0.18022004     0.13300
N142        N  0.14776449  0.17484852  0.22294308    -0.82400
H143        H  0.18787083  0.18311653  0.10697700     0.18200
N144        N  0.15790136  0.14826306  0.06420900    -0.81000
H145        H  0.14549122  0.19892147  0.22761807     0.33800
H146        H  0.16305438  0.16716840  0.23731033     0.38300
H147        H  0.17319618  0.15884303  0.05290729     0.33700
H148        H  0.16023177  0.12396878  0.06145781     0.30400
H149        H  0.13766351  0.05116926  0.13377655     0.33700
H150        H  0.15517892  0.08058521  0.11840650     0.30400
H151        H  0.06532703  0.12248458  0.01903766     0.38300
H152        H  0.06524295  0.15483454  0.04647083     0.33800
C153        C  0.16963780  0.17758859  0.32892261    -0.20000
C154        C  0.14935888  0.19170665  0.34555264     0.38300
C155        C  0.13189901  0.17244788  0.36259948    -0.25900
C156        C  0.13415311  0.13961592  0.36232361     0.02700
C157        C  0.15394231  0.12551544  0.34467446     0.27500
C158        C  0.17166614  0.14467574  0.32859106    -0.25100
N159        N  0.14695580  0.22538310  0.34628120    -0.82400
H160        H  0.11643831  0.18297012  0.37598280     0.13300
C161        C  0.11555065  0.11992795  0.38009758     0.02700
N162        N  0.15570442  0.09179821  0.34264168    -0.81000
H163        H  0.18703138  0.13387530  0.31523841     0.18100
C164        C  0.09648877  0.10941050  0.35756767    -0.25900
C165        C  0.07924523  0.08901132  0.37274429     0.36200
C166        C  0.08115878  0.07882768  0.41110962    -0.19900
C167        C  0.10032289  0.08952649  0.43361836    -0.25100
C168        C  0.11745713  0.11024551  0.41855567     0.27500
H169        H  0.09517784  0.11677741  0.32791161     0.13300
N170        N  0.06020403  0.07806623  0.34881692    -0.82400
H171        H  0.10160063  0.08232636  0.46333567     0.18200
N172        N  0.13646958  0.12200729  0.44226556    -0.81000
H173        H  0.05081224  0.09766493  0.33881403     0.33800
H174        H  0.06768115  0.06669300  0.32520043     0.38300
H175        H  0.13510067  0.11293804  0.47002641     0.33700
H176        H  0.15255436  0.11370561  0.43116676     0.30400
H177        H  0.17103256  0.08518996  0.32771168     0.33700
H178        H  0.15768389  0.08324042  0.37052875     0.30400
H179        H  0.14403039  0.23294358  0.31817860     0.38300
H180        H  0.13176960  0.23184310  0.36167029     0.33800
C181        C  0.08514746  0.43120906  0.08439211    -0.20000
C182        C  0.08621095  0.42726662  0.12446847     0.36300
C183        C  0.10380658  0.40770277  0.14036587    -0.25900
C184        C  0.11987756  0.39160971  0.11685123     0.02700
C185        C  0.11868520  0.39522353  0.07679588     0.27500
C186        C  0.10153270  0.41547298  0.06093488    -0.25100
N187        N  0.06938158  0.44305644  0.14873457    -0.82400
H188        H  0.10491172  0.40473096  0.17114052     0.13300
C189        C  0.13820789  0.37144078  0.13465255     0.02700
N190        N  0.13443919  0.37764541  0.05248229    -0.81000
H191        H  0.10035173  0.41810656  0.03010992     0.18100
C192        C  0.13378855  0.33919476  0.13928309    -0.25900
C193        C  0.15108061  0.31931116  0.15561814     0.36200
C194        C  0.17307995  0.33219746  0.16780647    -0.19900
C195        C  0.17735415  0.36456951  0.16297675    -0.25100
C196        C  0.16008859  0.38433466  0.14662675     0.27500
H197        H  0.11688925  0.32954359  0.12978135     0.13300
N198        N  0.14659193  0.28610051  0.15907978    -0.82400
H199        H  0.19412755  0.37457663  0.17249805     0.18200
N200        N  0.16450261  0.41752032  0.14254805    -0.81000
H201        H  0.12958433  0.28051730  0.14880012     0.33800
H202        H  0.15873106  0.27445976  0.14140189     0.38300
H203        H  0.18138322  0.42333524  0.15317123     0.33700
H204        H  0.16473880  0.42272880  0.11329235     0.30400
H205        H  0.13094193  0.38254239  0.02366309     0.33700
H206        H  0.15183878  0.38529873  0.05789539     0.30400
H207        H  0.07222132  0.46726766  0.14582183     0.38300
H208        H  0.07252847  0.43753758  0.17748289     0.33800
C209        C  0.33305818  0.17760768  0.16453856    -0.20000
C210        C  0.35340076  0.16750927  0.18515298     0.36300
C211        C  0.37109500  0.14998855  0.16634561    -0.25900
C212        C  0.36875025  0.14181802  0.12762715     0.02700
C213        C  0.34836837  0.15152713  0.10709916     0.27500
C214        C  0.33071865  0.16926570  0.12576617    -0.25100
N215        N  0.35569278  0.17420524  0.22535183    -0.82400
H216        H  0.38655663  0.14194067  0.18219451     0.13300
C217        C  0.38736965  0.12201657  0.10943756     0.02700
N218        N  0.34573327  0.14335210  0.06738000    -0.81000
H219        H  0.31514638  0.17686173  0.10987224     0.18100
C220        C  0.38109734  0.09237533  0.09502183    -0.25900
C221        C  0.39823553  0.07227562  0.07889742     0.36200
C222        C  0.42238753  0.08209916  0.07700511    -0.19900
C223        C  0.42849524  0.11207667  0.09128335    -0.25100
C224        C  0.41127018  0.13210184  0.10730695     0.27500
H225        H  0.36271783  0.08465083  0.09703760     0.13300
N226        N  0.39111633  0.04183772  0.06504786    -0.82400
H227        H  0.44678880  0.12017761  0.08964901     0.18200
N228        N  0.41790747  0.16271272  0.12127962    -0.81000
H229        H  0.37273661  0.03856686  0.06811314     0.33800
H230        H  0.39927688  0.02504936  0.08251453     0.38300
H231        H  0.43617627  0.16659965  0.11763993     0.33700
H232        H  0.40913361  0.17944677  0.10442914     0.30400
H233        H  0.32971027  0.15214954  0.05644562     0.33700
H234        H  0.35945018  0.15447683  0.05226871     0.30400
H235        H  0.34197595  0.16227015  0.23954153     0.38300
H236        H  0.37168364  0.16520467  0.23616344     0.33800
C237        C  0.33343076  0.32603213  0.33532304    -0.20000
C238        C  0.35529720  0.31263247  0.34705468     0.36300
C239        C  0.37270724  0.33192504  0.36416299    -0.25900
C240        C  0.36862146  0.36413643  0.36951562     0.02700
C241        C  0.34696784  0.37759978  0.35753272     0.27500
C242        C  0.32946256  0.35833389  0.34093868    -0.25100
N243        N  0.35959309  0.27954784  0.34207073    -0.82400
H244        H  0.38951196  0.32189404  0.37339777     0.13300
C245        C  0.38729320  0.38379259  0.38725217     0.02700
N246        N  0.34311678  0.41088575  0.36149405    -0.81000
H247        H  0.31279893  0.36871268  0.33160278     0.18100
C248        C  0.40344057  0.39965522  0.36358292    -0.25900
C249        C  0.42091595  0.41956129  0.37895568     0.36200
C250        C  0.42254904  0.42299847  0.41928387    -0.19900
C251        C  0.40617870  0.40722857  0.44291311    -0.25100
C252        C  0.38851072  0.38759480  0.42724032     0.27500
H253        H  0.40216969  0.39695269  0.33278429     0.13300
N254        N  0.43612500  0.43629931  0.35270170    -0.82400
H255        H  0.40747357  0.40983600  0.47372386     0.18200
N256        N  0.37205305  0.37113365  0.45166734    -0.81000
H257        H  0.42517548  0.45009577  0.33520352     0.33800
H258        H  0.44729077  0.45216529  0.36673454     0.38300
H259        H  0.37557018  0.37616501  0.48042776     0.33700
H260        H  0.35496805  0.37971743  0.44590302     0.30400
H261        H  0.32638905  0.41713083  0.35066259     0.33700
H262        H  0.34286746  0.41611051  0.39071790     0.30400
H263        H  0.34737849  0.26735679  0.35916611     0.38300
H264        H  0.37657072  0.27354610  0.35206976     0.33800
C265        C  0.42046999  0.07423712  0.41469305    -0.20000
C266        C  0.42368100  0.08735133  0.37774252     0.36300
C267        C  0.40590421  0.10670046  0.36212017    -0.25900
C268        C  0.38496000  0.11304364  0.38236611     0.02700
C269        C  0.38138432  0.09945222  0.41875464     0.27500
C270        C  0.39912740  0.08000776  0.43448826    -0.25100
N271        N  0.44486339  0.08081069  0.35604786    -0.82400
H272        H  0.40828146  0.11677458  0.33384882     0.13300
C273        C  0.36671443  0.13355004  0.36468274     0.02700
N274        N  0.35993723  0.10593382  0.43977894    -0.81000
H275        H  0.39658681  0.07013819  0.46282172     0.18100
C276        C  0.34426770  0.12089560  0.35634997    -0.25900
C277        C  0.32649579  0.13924800  0.33907351     0.36200
C278        C  0.33127510  0.17119992  0.33016586    -0.19900
C279        C  0.35394680  0.18371403  0.33822817    -0.25100
C280        C  0.37167904  0.16523175  0.35563946     0.27500
H281        H  0.34074938  0.09638139  0.36289551     0.13300
N282        N  0.30382670  0.12527374  0.32986934    -0.82400
H283        H  0.35771841  0.20812583  0.33155845     0.18200
N284        N  0.39459853  0.17853560  0.36462832    -0.81000
H285        H  0.30311840  0.10186081  0.33905047     0.33800
H286        H  0.30231780  0.12484069  0.30002833     0.38300
H287        H  0.39542274  0.20208063  0.35598318     0.33700
H288        H  0.39642464  0.17842264  0.39442833     0.30400
H289        H  0.36009266  0.09422246  0.46613145     0.33700
H290        H  0.35974361  0.13001601  0.44586328     0.30400
H291        H  0.44490691  0.05673205  0.34992782     0.38300
H292        H  0.44450157  0.09254787  0.32971884     0.33800
C293        C  0.08420135  0.42457925  0.42044484    -0.20000
C294        C  0.08654445  0.39238204  0.43053875     0.36300
C295        C  0.10461978  0.37447797  0.41366869    -0.25900
C296        C  0.12038849  0.38781555  0.38715120     0.02700
C297        C  0.11846748  0.41997119  0.37773155     0.27500
C298        C  0.10040075  0.43812561  0.39464556    -0.25100
N299        N  0.07111816  0.37703145  0.45770566    -0.82400
H300        H  0.10624898  0.34978622  0.42106069     0.13300
C301        C  0.13860153  0.36758747  0.36905538     0.02700
N302        N  0.13482100  0.43391998  0.35095985    -0.81000
H303        H  0.09868205  0.46279989  0.38724361     0.18100
C304        C  0.13672258  0.36066464  0.32992496    -0.25900
C305        C  0.15358989  0.34139522  0.31175412     0.36200
C306        C  0.17247894  0.32848556  0.33348054    -0.19900
C307        C  0.17433691  0.33557680  0.37262488    -0.25100
C308        C  0.15756242  0.35501255  0.39064944     0.27500
H309        H  0.12210472  0.37052617  0.31353830     0.13300
N310        N  0.15195874  0.33559529  0.27126538    -0.82400
H311        H  0.18894812  0.32589344  0.38919224     0.18200
N312        N  0.15974090  0.36223311  0.43070221    -0.81000
H313        H  0.13695348  0.34664611  0.25964854     0.33800
H314        H  0.16680586  0.34604795  0.25834867     0.38300
H315        H  0.17460511  0.35098030  0.44249855     0.33700
H316        H  0.16286277  0.38641878  0.43308163     0.30400
H317        H  0.13088795  0.45773075  0.34687745     0.33700
H318        H  0.15184269  0.43297359  0.36315780     0.30400
H319        H  0.05874157  0.39245274  0.46952677     0.38300
H320        H  0.08171585  0.36932781  0.48051611     0.33800
C321        C  0.42420241  0.42432761  0.08452969    -0.20000
C322        C  0.40844637  0.43586992  0.11280879     0.36300
C323        C  0.39125762  0.41558663  0.12836570    -0.25900
C324        C  0.38965685  0.38401089  0.11698795     0.02700
C325        C  0.40571060  0.37232565  0.08921614     0.27500
C326        C  0.42268011  0.39271551  0.07330593    -0.25100
N327        N  0.40996319  0.46732466  0.12773560    -0.82400
H328        H  0.37915536  0.42447216  0.14994425     0.13300
C329        C  0.37117588  0.36394054  0.13492711     0.02700
N330        N  0.40547934  0.34011358  0.07658777    -0.81000
H331        H  0.43484521  0.38374910  0.05185572     0.18100
C332        C  0.35083590  0.35583544  0.11380157    -0.25900
C333        C  0.33260982  0.33771447  0.13026563     0.36200
C334        C  0.33475202  0.32728065  0.16853479    -0.19900
C335        C  0.35530827  0.33513850  0.18950230    -0.25100
C336        C  0.37347847  0.35361146  0.17312518     0.27500
H337        H  0.34904947  0.36381311  0.08444258     0.13300
N338        N  0.31209581  0.32962359  0.10783156    -0.82400
H339        H  0.35693524  0.32747363  0.21900113     0.18200
N340        N  0.39412568  0.36228088  0.19516864    -0.81000
H341        H  0.30406378  0.35048828  0.09858992     0.33800
H342        H  0.31786135  0.31734742  0.08365538     0.38300
H343        H  0.39290452  0.35330034  0.22298868     0.33700
H344        H  0.40892347  0.35161428  0.18253142     0.30400
H345        H  0.42185550  0.33015786  0.08416809     0.33700
H346        H  0.39244387  0.32686176  0.09052241     0.30400
H347        H  0.42379029  0.48017778  0.11526787     0.38300
H348        H  0.39403655  0.47877642  0.12095910     0.33800
O349        O  0.46274850  0.43590210  0.92959338    -0.75400
O350        O  0.43497829  0.46389286  0.96308082    -0.54300
C351        C  0.44114226  0.44251926  0.93903181     0.78400
O352        O  0.04445978  0.44343994  0.57568544    -0.60000
O353        O  0.07166759  0.46968374  0.53896328    -0.53000
C354        C  0.06591144  0.44978255  0.56516355     0.70400
O355        O  0.46427829  0.43758594  0.57372899    -0.74500
O356        O  0.43560479  0.46600913  0.54271795    -0.55100
C357        C  0.44240429  0.44420362  0.56584206     0.76400
O358        O  0.04293867  0.43523217  0.93107840    -0.59700
O359        O  0.07083358  0.46794626  0.95762989    -0.52800
C360        C  0.06461764  0.44389882  0.93758213     0.73000
Zr361      Zr  0.50299430  0.45419650  0.94463724     2.54700
O362        O  0.50257026  0.39699355  0.94145127    -0.80200
O363        O  0.00274032  0.45501776  0.87607286    -0.93700
Zr364      Zr  0.50398265  0.45780084  0.55864859     2.64700
O365        O  0.50643573  0.40075858  0.56451313    -0.98600
O366        O  0.00242832  0.46176270  0.62654616    -0.80700
O367        O  0.48066561  0.45462467  0.00229729    -0.84000
O368        O  0.02597688  0.45578426  0.00228162    -2.18700
O369        O  0.04264028  0.06330371  0.92069197    -0.67400
O370        O  0.07092498  0.03810624  0.95626247    -0.52000
C371        C  0.06436255  0.05800988  0.93054468     0.71300
O372        O  0.46285884  0.06881479  0.56912182    -0.60300
O373        O  0.43505085  0.03845890  0.53940427    -0.52300
C374        C  0.44111040  0.06125739  0.56161307     0.73200
O375        O  0.04291278  0.07026179  0.56670678    -0.71700
O376        O  0.07107809  0.04019236  0.53715194    -0.50400
C377        C  0.06465750  0.06316008  0.55866968     0.74500
O378        O  0.46246000  0.06422660  0.92426719    -0.67100
O379        O  0.43468302  0.03601265  0.95731084    -0.54300
C380        C  0.44079316  0.05728820  0.93292604     0.72900
Zr381      Zr  0.00280908  0.04674297  0.93950173     2.77500
O382        O  0.00369570  0.10401629  0.93615804    -0.97800
O383        O  0.00128805  0.04114901  0.87016897    -0.78600
Zr384      Zr  0.00276280  0.05054245  0.55353650     2.70100
O385        O  0.00231706  0.10759986  0.55966204    -0.79900
O386        O  0.00377542  0.04476552  0.62281143    -0.99000
Zr387      Zr  0.45693474  0.00122455  0.50037186     2.21500
Zr388      Zr  0.04852035  0.50329248  0.99865962     2.11100
O389        O  0.02484581  0.04998246  0.49569182    -2.47600
O390        O  0.47933127  0.04874678  0.49680407    -0.79700
O391        O  0.02564928  0.50040032  0.94121628    -0.71900
O392        O  0.47995495  0.00404646  0.55771936    -2.32800
O393        O  0.47937033  0.99994220  0.94129613    -2.29000
O394        O  0.02680984  0.50462433  0.55580429    -0.73600
H395        H  0.03672516  0.43778391  0.50081527     0.78400
H396        H  0.46983227  0.00455323  0.58004118     0.79500
H397        H  0.03565966  0.06815166  0.99490806     0.81700
H398        H  0.46885330  0.99935776  0.91938186     0.79300
H399        H  0.49672167  0.44499051  0.63793358     0.42300
H400        H  0.02028944  0.03804669  0.62860771     0.41300
H401        H  0.49996980  0.11431314  0.52688889     0.41000
H402        H  0.01746343  0.11042763  0.95216354     0.38900
H403        H  0.01598056  0.02947935  0.86361303     0.42000
H404        H  0.48912697  0.47142521  0.86866528     0.36800
H405        H  0.50598675  0.39011890  0.96799607     0.42900
H406        H  0.01938533  0.39465234  0.54177819     0.39400
H407        H  0.00862944  0.10886348  0.90958905     0.44300
H408        H  0.49974095  0.43748733  0.86580742     0.43000
H409        H  0.51316807  0.39698733  0.59033598     0.43100
H410        H  0.00286409  0.06658870  0.63255884     0.43500
O411        O  0.29378585  0.31770949  0.67857222    -0.75400
O412        O  0.32103399  0.28811184  0.71110540    -0.54300
C413        C  0.31529115  0.30978229  0.68701686     0.78400
O414        O  0.21220172  0.31393681  0.82679113    -0.60000
O415        O  0.18452532  0.28891958  0.78976438    -0.53000
C416        C  0.19064677  0.30877847  0.81572857     0.70400
O417        O  0.29216726  0.31497786  0.82634290    -0.74500
O418        O  0.32015486  0.28643174  0.79430675    -0.55100
C419        C  0.31386808  0.30794176  0.81812490     0.76400
O420        O  0.21384914  0.32123204  0.67917812    -0.59700
O421        O  0.18544271  0.29106365  0.70819575    -0.52800
C422        C  0.19201574  0.31385459  0.68627233     0.73000
Zr423      Zr  0.25346886  0.30189716  0.69554465     2.54700
O424        O  0.25532931  0.35914780  0.69774118    -0.80200
O425        O  0.25247869  0.30005371  0.62583449    -0.93700
Zr426      Zr  0.25229888  0.29696512  0.80982428     2.64700
O427        O  0.25216072  0.35379194  0.81919971    -0.98600
O428        O  0.25210642  0.28604049  0.87828829    -0.80700
O429        O  0.27573158  0.29976882  0.75333027    -0.84000
O430        O  0.23027291  0.30070772  0.75209722    -2.18700
O431        O  0.21214846  0.19290545  0.67170677    -0.67400
O432        O  0.18446086  0.21947334  0.70669111    -0.52000
C433        C  0.19049713  0.19890892  0.68156719     0.71300
O434        O  0.29116616  0.18475863  0.81812909    -0.60300
O435        O  0.31992030  0.21477154  0.78991325    -0.52300
C436        C  0.31308401  0.19154016  0.81091824     0.73200
O437        O  0.21087223  0.18687410  0.81788814    -0.71700
O438        O  0.18376203  0.21913152  0.78901417    -0.50400
C439        C  0.18940734  0.19570976  0.81050380     0.74500
O440        O  0.29242176  0.19055390  0.67401934    -0.67100
O441        O  0.32010014  0.21635899  0.71034458    -0.54300
C442        C  0.31398895  0.19592045  0.68497743     0.72900
Zr443      Zr  0.25247049  0.20914351  0.68981755     2.77500
O444        O  0.25294197  0.15200358  0.68528283    -0.97800
O445        O  0.25329882  0.21604149  0.62053368    -0.78600
Zr446      Zr  0.25134261  0.20455203  0.80406761     2.70100
O447        O  0.24961514  0.14736004  0.80495297    -0.79900
O448        O  0.25141769  0.20657835  0.87378673    -0.99000
Zr449      Zr  0.29818872  0.25236275  0.75105258     2.21500
Zr450      Zr  0.20681167  0.25408002  0.74854927     2.11100
O451        O  0.22922557  0.20657238  0.74631273    -2.47600
O452        O  0.27462670  0.20591728  0.74755975    -0.79700
O453        O  0.22949431  0.25600163  0.69096347    -0.71900
O454        O  0.27537679  0.25034086  0.80860783    -2.32800
O455        O  0.27639811  0.25512920  0.69244757    -2.29000
O456        O  0.22825572  0.25113573  0.80735749    -0.73600
H457        H  0.22038226  0.31928100  0.75292841     0.78400
H458        H  0.28557139  0.24923880  0.83089825     0.79500
H459        H  0.21891079  0.18837282  0.74513953     0.81700
H460        H  0.28701332  0.25567212  0.67072420     0.79300
H461        H  0.24800319  0.30639682  0.89031294     0.42300
H462        H  0.23443482  0.20874373  0.88099140     0.41300
H463        H  0.25320573  0.14116432  0.77827056     0.41000
H464        H  0.24023053  0.14483806  0.70290912     0.38900
H465        H  0.26971638  0.22318486  0.61473889     0.42000
H466        H  0.26705299  0.28844392  0.61848920     0.36800
H467        H  0.24770282  0.36476757  0.72233756     0.42900
H468        H  0.23970458  0.36178504  0.80158553     0.39400
H469        H  0.24671111  0.14735190  0.65936051     0.44300
H470        H  0.25558114  0.32199972  0.61767993     0.43000
H471        H  0.24551309  0.35696896  0.84514830     0.43100
H472        H  0.25572500  0.18497345  0.88184998     0.43500
C473        C  0.08355782  0.08336347  0.57488334    -0.20000
C474        C  0.08127251  0.11644058  0.57452868     0.36300
C475        C  0.09917235  0.13505443  0.59124975    -0.25900
C476        C  0.11933107  0.12122878  0.60784545     0.02700
C477        C  0.12181140  0.08823122  0.60794356     0.27500
C478        C  0.10397753  0.06956141  0.59097069    -0.25100
N479        N  0.06102166  0.13096622  0.55648544    -0.82400
H480        H  0.09747005  0.16045311  0.59130774     0.13300
C481        C  0.13736631  0.14168041  0.62605927     0.02700
N482        N  0.14197423  0.07386896  0.62643354    -0.81000
H483        H  0.10569507  0.04416368  0.59114266     0.18100
C484        C  0.13431073  0.15040487  0.66435587    -0.25900
C485        C  0.15106585  0.16940269  0.68298527     0.36200
C486        C  0.17139857  0.18029824  0.66278622    -0.19900
C487        C  0.17424930  0.17163981  0.62421162    -0.25100
C488        C  0.15736940  0.15250229  0.60558161     0.27500
H489        H  0.11889600  0.14202511  0.68006524     0.13300
N490        N  0.14741092  0.17593063  0.72277450    -0.82400
H491        H  0.18971176  0.17987999  0.60853764     0.18200
N492        N  0.16021603  0.14443201  0.56588048    -0.81000
H493        H  0.14518136  0.20013486  0.72638592     0.33800
H494        H  0.16238374  0.16844238  0.73812186     0.38300
H495        H  0.17580354  0.15448442  0.55489664     0.33700
H496        H  0.16242038  0.12007615  0.56410417     0.30400
H497        H  0.14069927  0.04934459  0.62514964     0.33700
H498        H  0.15724722  0.08011226  0.61111396     0.30400
H499        H  0.06178133  0.12571953  0.52726395     0.38300
H500        H  0.06202267  0.15546162  0.55876685     0.33800
C501        C  0.17000395  0.17661583  0.82709704    -0.20000
C502        C  0.15028150  0.19035189  0.84576233     0.38300
C503        C  0.13312832  0.17070272  0.86293425    -0.25900
C504        C  0.13519272  0.13788768  0.86098872     0.02700
C505        C  0.15446224  0.12419555  0.84152157     0.27500
C506        C  0.17178598  0.14371429  0.82495331    -0.25100
N507        N  0.14824426  0.22399178  0.84859650    -0.82400
H508        H  0.11811578  0.18091231  0.87789553     0.13300
C509        C  0.11704876  0.11783360  0.87932953     0.02700
N510        N  0.15628788  0.09052796  0.83870455    -0.81000
H511        H  0.18678538  0.13322227  0.81023755     0.18100
C512        C  0.09792531  0.10680075  0.85732826    -0.25900
C513        C  0.08082894  0.08665594  0.87330044     0.36200
C514        C  0.08292477  0.07730417  0.91193291    -0.19900
C515        C  0.10224689  0.08825553  0.93386438    -0.25100
C516        C  0.11935328  0.10856502  0.91789383     0.27500
H517        H  0.09638287  0.11369689  0.82753525     0.13300
N518        N  0.06164203  0.07522958  0.84999345    -0.82400
H519        H  0.10369277  0.08153339  0.96372852     0.18200
N520        N  0.13884277  0.12017305  0.94068434    -0.81000
H521        H  0.05214417  0.09460985  0.83962786     0.33800
H522        H  0.06896251  0.06340469  0.82658470     0.38300
H523        H  0.13782427  0.11132318  0.96858727     0.33700
H524        H  0.15464162  0.11145283  0.92900087     0.30400
H525        H  0.17126321  0.08423097  0.82269437     0.33700
H526        H  0.15900221  0.08166123  0.86629836     0.30400
H527        H  0.14470231  0.23269218  0.82116989     0.38300
H528        H  0.13353815  0.23007322  0.86535410     0.33800
C529        C  0.08522173  0.43179522  0.58359826    -0.20000
C530        C  0.08539153  0.42631896  0.62345999     0.36300
C531        C  0.10319115  0.40711251  0.63943257    -0.25900
C532        C  0.12054242  0.39315531  0.61623362     0.02700
C533        C  0.12034050  0.39845121  0.57639063     0.27500
C534        C  0.10278671  0.41806482  0.56048515    -0.25100
N535        N  0.06751095  0.44028036  0.64745141    -0.82400
H536        H  0.10351938  0.40284173  0.67002955     0.13300
C537        C  0.13884085  0.37298812  0.63416662     0.02700
N538        N  0.13740239  0.38302106  0.55218027    -0.81000
H539        H  0.10229894  0.42180363  0.52977861     0.18100
C540        C  0.13390839  0.34104475  0.64035290    -0.25900
C541        C  0.15094801  0.32112275  0.65728280     0.36200
C542        C  0.17330945  0.33361985  0.66832316    -0.19900
C543        C  0.17802037  0.36577499  0.66226726    -0.25100
C544        C  0.16094137  0.38562586  0.64552026     0.27500
H545        H  0.11675754  0.33164927  0.63167392     0.13300
N546        N  0.14576932  0.28825591  0.66264959    -0.82400
H547        H  0.19498857  0.37558254  0.67118547     0.18200
N548        N  0.16565305  0.41871100  0.64096875    -0.81000
H549        H  0.12852515  0.28297276  0.65319441     0.33800
H550        H  0.15742939  0.27550636  0.64527974     0.38300
H551        H  0.18255508  0.42438018  0.65161555     0.33700
H552        H  0.16600623  0.42373966  0.61169248     0.30400
H553        H  0.13439257  0.38879437  0.52345950     0.33700
H554        H  0.15432141  0.39166249  0.55904123     0.30400
H555        H  0.06967161  0.46470136  0.64603799     0.38300
H556        H  0.07013690  0.43385365  0.67605493     0.33800
C557        C  0.33307723  0.17698582  0.66708817    -0.20000
C558        C  0.35186713  0.16414470  0.68906978     0.36300
C559        C  0.36927557  0.14565860  0.67101509    -0.25900
C560        C  0.36865735  0.14037485  0.63135504     0.02700
C561        C  0.35021646  0.15386198  0.60925545     0.27500
C562        C  0.33232584  0.17143310  0.62748532    -0.25100
N563        N  0.35298864  0.16945813  0.72968475    -0.82400
H564        H  0.38331345  0.13505490  0.68800768     0.13300
C565        C  0.38727476  0.12035366  0.61347127     0.02700
N566        N  0.34997340  0.15006863  0.56835136    -0.81000
H567        H  0.31803215  0.18153533  0.61058317     0.18100
C568        C  0.38039492  0.09410566  0.59180136    -0.25900
C569        C  0.39735507  0.07424542  0.57479447     0.36200
C570        C  0.42201055  0.08069410  0.57972014    -0.19900
C571        C  0.42872862  0.10705194  0.60178914    -0.25100
C572        C  0.41170199  0.12703169  0.61828068     0.27500
H573        H  0.36158748  0.08888360  0.58849124     0.13300
N574        N  0.38943871  0.04772989  0.55261810    -0.82400
H575        H  0.44741905  0.11259174  0.60580144     0.18200
N576        N  0.41912118  0.15441770  0.63935901    -0.81000
H577        H  0.37084358  0.04731079  0.55049882     0.33800
H578        H  0.39422823  0.02745367  0.56765413     0.38300
H579        H  0.43771527  0.15604404  0.64023016     0.33700
H580        H  0.41307480  0.17421453  0.62443940     0.30400
H581        H  0.33527193  0.16151967  0.55632154     0.33700
H582        H  0.36515506  0.16126229  0.55751295     0.30400
H583        H  0.33824102  0.15832197  0.74201822     0.38300
H584        H  0.36812502  0.15885785  0.74148626     0.33800
C585        C  0.33275109  0.32687014  0.83679802    -0.20000
C586        C  0.35500333  0.31388189  0.84731571     0.36300
C587        C  0.37240860  0.33338554  0.86412878    -0.25900
C588        C  0.36789042  0.36535395  0.87071891     0.02700
C589        C  0.34571316  0.37829330  0.86046839     0.27500
C590        C  0.32833696  0.35890441  0.84372732    -0.25100
N591        N  0.35971120  0.28099363  0.84143764    -0.82400
H592        H  0.38953621  0.32368110  0.87227218     0.13300
C593        C  0.38653100  0.38517724  0.88845553     0.02700
N594        N  0.34108853  0.41116157  0.86666256    -0.81000
H595        H  0.31135909  0.36900247  0.83546841     0.18100
C596        C  0.40123516  0.40351366  0.86494051    -0.25900
C597        C  0.41882894  0.42316385  0.88056015     0.36200
C598        C  0.42200685  0.42397016  0.92084723    -0.19900
C599        C  0.40701193  0.40586231  0.94436247    -0.25100
C600        C  0.38927269  0.38639488  0.92850075     0.27500
H601        H  0.39883526  0.40278834  0.83414786     0.13300
N602        N  0.43265595  0.44224039  0.85469940    -0.82400
H603        H  0.40944210  0.40653967  0.97515469     0.18200
N604        N  0.37423787  0.36754370  0.95273822    -0.81000
H605        H  0.42081670  0.45696319  0.84005658     0.33800
H606        H  0.44430615  0.45719900  0.86922352     0.38300
H607        H  0.37877110  0.37079459  0.98151600     0.33700
H608        H  0.35675944  0.37563620  0.94952942     0.30400
H609        H  0.32401431  0.41706277  0.85700225     0.33700
H610        H  0.34123092  0.41509711  0.89619604     0.30400
H611        H  0.34800896  0.26825087  0.85886462     0.38300
H612        H  0.37695277  0.27532092  0.85050855     0.33800
C613        C  0.42160986  0.07560684  0.91393067    -0.20000
C614        C  0.42490273  0.08943604  0.87739106     0.36300
C615        C  0.40683416  0.10833341  0.86173586    -0.25900
C616        C  0.38549153  0.11349498  0.88147016     0.02700
C617        C  0.38185979  0.09913050  0.91741321     0.27500
C618        C  0.39993228  0.08026751  0.93324101    -0.25100
N619        N  0.44642955  0.08405111  0.85609777    -0.82400
H620        H  0.40929176  0.11896787  0.83378862     0.13300
C621        C  0.36704918  0.13380385  0.86375693     0.02700
N622        N  0.35998829  0.10414946  0.93789013    -0.81000
H623        H  0.39729665  0.06983482  0.96125285     0.18100
C624        C  0.34486409  0.12079119  0.85433608    -0.25900
C625        C  0.32709428  0.13901035  0.83669897     0.36200
C626        C  0.33164555  0.17109566  0.82828537    -0.19900
C627        C  0.35407897  0.18392936  0.83730114    -0.25100
C628        C  0.37169560  0.16571066  0.85546311     0.27500
H629        H  0.34153419  0.09614955  0.86038641     0.13300
N630        N  0.30461268  0.12483755  0.82681813    -0.82400
H631        H  0.35766084  0.20848080  0.83113658     0.18200
N632        N  0.39413786  0.17955632  0.86618799    -0.81000
H633        H  0.30400513  0.10134996  0.83572485     0.33800
H634        H  0.30334824  0.12464516  0.79694479     0.38300
H635        H  0.39478728  0.20321920  0.85800266     0.33700
H636        H  0.39517864  0.17914459  0.89608406     0.30400
H637        H  0.36012409  0.09189830  0.96388084     0.33700
H638        H  0.35905851  0.12806571  0.94468788     0.30400
H639        H  0.44700984  0.06011255  0.84928621     0.38300
H640        H  0.44609490  0.09628180  0.83010155     0.33800
C641        C  0.08373222  0.42408729  0.92162825    -0.20000
C642        C  0.08686656  0.39234675  0.93326284     0.36300
C643        C  0.10457874  0.37415428  0.91580791    -0.25900
C644        C  0.11932940  0.38679136  0.88732789     0.02700
C645        C  0.11659696  0.41848447  0.87624053     0.27500
C646        C  0.09885290  0.43690404  0.89365606    -0.25100
N647        N  0.07263131  0.37776957  0.96263824    -0.82400
H648        H  0.10679096  0.34981487  0.92444218     0.13300
C649        C  0.13753665  0.36645637  0.86928841     0.02700
N650        N  0.13182157  0.43170948  0.84729364    -0.81000
H651        H  0.09652732  0.46120166  0.88496254     0.18100
C652        C  0.13546210  0.35895348  0.83033250    -0.25900
C653        C  0.15252291  0.33998546  0.81215729     0.36200
C654        C  0.17173814  0.32777220  0.83376651    -0.19900
C655        C  0.17372938  0.33531448  0.87275927    -0.25100
C656        C  0.15691616  0.35474826  0.89067288     0.27500
H657        H  0.12060613  0.36826887  0.81402562     0.13300
N658        N  0.15078640  0.33388885  0.77173953    -0.82400
H659        H  0.18860578  0.32623616  0.88922381     0.18200
N660        N  0.15964684  0.36316332  0.93028845    -0.81000
H661        H  0.13561315  0.34457132  0.76017772     0.33800
H662        H  0.16545347  0.34455870  0.75855475     0.38300
H663        H  0.17479446  0.35249399  0.94195962     0.33700
H664        H  0.16260427  0.38744822  0.93145808     0.30400
H665        H  0.12737799  0.45521714  0.84212498     0.33700
H666        H  0.14923552  0.43167497  0.85802903     0.30400
H667        H  0.06062104  0.39348374  0.97486206     0.38300
H668        H  0.08413010  0.37096890  0.98473788     0.33800
C669        C  0.42389959  0.42422046  0.58362789    -0.20000
C670        C  0.40410858  0.43658561  0.60377945     0.36300
C671        C  0.38718243  0.41584341  0.61916988    -0.25900
C672        C  0.38961708  0.38316893  0.61553226     0.02700
C673        C  0.40928439  0.37076793  0.59535077     0.27500
C674        C  0.42610937  0.39147189  0.57967270    -0.25100
N675        N  0.40106504  0.46963882  0.61091173    -0.82400
H676        H  0.37216280  0.42532092  0.63484405     0.13300
C677        C  0.37137584  0.36280845  0.63342148     0.02700
N678        N  0.41265916  0.33754270  0.58978187    -0.81000
H679        H  0.44102244  0.38183580  0.56387594     0.18100
C680        C  0.35043343  0.35616905  0.61313619    -0.25900
C681        C  0.33216999  0.33831424  0.62984942     0.36200
C682        C  0.33476179  0.32710615  0.66770840    -0.19900
C683        C  0.35605342  0.33316319  0.68764647    -0.25100
C684        C  0.37443715  0.35092754  0.67080225     0.27500
H685        H  0.34822522  0.36503650  0.58423184     0.13300
N686        N  0.31118247  0.33120354  0.60805068    -0.82400
H687        H  0.35814998  0.32458935  0.71669789     0.18200
N688        N  0.39597119  0.35752586  0.69168510    -0.81000
H689        H  0.30334670  0.35243499  0.59967283     0.33800
H690        H  0.31635924  0.31917312  0.58334893     0.38300
H691        H  0.39518640  0.34763909  0.71909373     0.33700
H692        H  0.40997103  0.34633252  0.67748837     0.30400
H693        H  0.42837840  0.33118331  0.60391383     0.33700
H694        H  0.39897108  0.32431277  0.60207099     0.30400
H695        H  0.41552700  0.48296702  0.60146136     0.38300
H696        H  0.38600723  0.47702106  0.59570990     0.33800
O697        O  0.46276827  0.93494154  0.42978343    -0.75400
O698        O  0.43483675  0.96380164  0.46181394    -0.54300
C699        C  0.44112352  0.94196475  0.43849013     0.78400
O700        O  0.04418093  0.94321529  0.07732824    -0.60000
O701        O  0.07154993  0.96834155  0.03969907    -0.53000
C702        C  0.06564937  0.94892323  0.06632672     0.70400
O703        O  0.46319011  0.93661741  0.07097812    -0.74500
O704        O  0.43497455  0.96710138  0.04173955    -0.55100
C705        C  0.44145780  0.94424961  0.06355270     0.76400
O706        O  0.04372990  0.93522197  0.43064046    -0.59700
O707        O  0.07136230  0.96723538  0.45903965    -0.52800
C708        C  0.06530792  0.94348878  0.43838818     0.73000
Zr709      Zr  0.50290369  0.95363921  0.44462276     2.54700
O710        O  0.50350976  0.89634562  0.44502705    -0.80200
O711        O  0.00498994  0.95528252  0.37534180    -0.93700
Zr712      Zr  0.50315870  0.95687920  0.05797298     2.64700
O713        O  0.50485614  0.89977958  0.06451457    -0.98600
O714        O  0.00142372  0.96537425  0.12684677    -0.80700
O715        O  0.48057467  0.95486649  0.50221640    -0.84000
O716        O  0.02661626  0.95584590  0.50171080    -2.18700
O717        O  0.04134742  0.56401650  0.41989595    -0.67400
O718        O  0.06990733  0.53885303  0.45493342    -0.52000
C719        C  0.06312517  0.55882666  0.42945783     0.71300
O720        O  0.46316923  0.56892830  0.06951499    -0.60300
O721        O  0.43521295  0.53829850  0.04043054    -0.52300
C722        C  0.44136019  0.56143411  0.06203131     0.73200
O723        O  0.04287128  0.57066573  0.06771515    -0.71700
O724        O  0.07073163  0.54001438  0.03818500    -0.50400
C725        C  0.06450360  0.56324575  0.05948990     0.74500
O726        O  0.46155178  0.56373457  0.42506378    -0.67100
O727        O  0.43410913  0.53499516  0.45816101    -0.54300
C728        C  0.43999675  0.55654305  0.43398127     0.72900
Zr729      Zr  0.00174342  0.54630480  0.43840419     2.77500
O730        O  0.00077048  0.60312477  0.42891683    -0.97800
O731        O  0.00080991  0.53877220  0.36929868    -0.78600
Zr732      Zr  0.00286589  0.55066869  0.05481861     2.70100
O733        O  0.00301158  0.60782689  0.05901186    -0.79900
O734        O  0.00318327  0.54611265  0.12430358    -0.99000
Zr735      Zr  0.45724835  0.50132977  0.00143958     2.21500
Zr736      Zr  0.04873362  0.00361698  0.49798389     2.11100
O737        O  0.02500935  0.54992450  0.99701790    -2.47600
O738        O  0.47985601  0.54861682  0.99848576    -0.79700
O739        O  0.02602708  0.00044082  0.44037899    -0.71900
O740        O  0.48024919  0.50326250  0.05891739    -2.32800
O741        O  0.47899339  0.49926232  0.44146169    -2.29000
O742        O  0.02715337  0.00430448  0.05646721    -0.73600
H743        H  0.03657462  0.93724843  0.00185555     0.78400
H744        H  0.47014759  0.50367197  0.08127109     0.79500
H745        H  0.03461162  0.56879603  0.49371424     0.81700
H746        H  0.46838460  0.49836741  0.41968123     0.79300
H747        H  0.50135166  0.94396276  0.13796321     0.42300
H748        H  0.01986201  0.54068098  0.13084974     0.41300
H749        H  0.50405597  0.61419018  0.03154608     0.41000
H750        H  0.01522921  0.61132598  0.44183268     0.38900
H751        H  0.01630511  0.52888313  0.36317558     0.42000
H752        H  0.49027457  0.97004411  0.36777743     0.36800
H753        H  0.50896875  0.89068350  0.47110808     0.42900
H754        H  0.01929515  0.89418231  0.04630538     0.39400
H755        H  0.00387724  0.60611467  0.40124366     0.44300
H756        H  0.49700675  0.93431738  0.36696944     0.43000
H757        H  0.51121440  0.89598628  0.09057614     0.43100
H758        H  0.00124840  0.56798992  0.13346595     0.43500
O759        O  0.29386988  0.81692806  0.17875652    -0.75400
O760        O  0.32118313  0.78807163  0.21212416    -0.54300
C761        C  0.31541184  0.80940264  0.18756953     0.78400
O762        O  0.21263849  0.81450119  0.32641136    -0.60000
O763        O  0.18465555  0.78914374  0.29025509    -0.53000
C764        C  0.19101332  0.80920876  0.31585804     0.70400
O765        O  0.29260632  0.81435633  0.32568141    -0.74500
O766        O  0.32056411  0.78531622  0.29439432    -0.55100
C767        C  0.31430610  0.80711868  0.31776295     0.76400
O768        O  0.21362613  0.82005358  0.17888682    -0.59700
O769        O  0.18502817  0.79012691  0.20773770    -0.52800
C770        C  0.19174851  0.81265358  0.18557678     0.73000
Zr771      Zr  0.25341662  0.80176918  0.19616221     2.54700
O772        O  0.25522383  0.85885283  0.20209478    -0.80200
O773        O  0.25170637  0.80416561  0.12651502    -0.93700
Zr774      Zr  0.25252401  0.79652779  0.31000924     2.64700
O775        O  0.25470945  0.85291077  0.32200721    -0.98600
O776        O  0.25224184  0.78542211  0.37838732    -0.80700
O777        O  0.27589906  0.79938601  0.25362882    -0.84000
O778        O  0.23013726  0.80078856  0.25253942    -2.18700
O779        O  0.21175655  0.69298540  0.17176932    -0.67400
O780        O  0.18417645  0.72025775  0.20622770    -0.52000
C781        C  0.19011115  0.69957195  0.18119946     0.71300
O782        O  0.29088568  0.68435596  0.31918309    -0.60300
O783        O  0.31962516  0.71467344  0.29137752    -0.52300
C784        C  0.31280390  0.69139849  0.31233329     0.73200
O785        O  0.21048321  0.68745891  0.31942471    -0.71700
O786        O  0.18355542  0.71915112  0.28911771    -0.50400
C787        C  0.18906026  0.69616829  0.31137308     0.74500
O788        O  0.29249153  0.69142766  0.17335622    -0.67100
O789        O  0.32023029  0.71678564  0.20998712    -0.54300
C790        C  0.31413514  0.69679813  0.18411174     0.72900
Zr791      Zr  0.25222491  0.70849657  0.19049471     2.77500
O792        O  0.25214193  0.65116821  0.18947572    -0.97800
O793        O  0.25249537  0.71349555  0.12105703    -0.78600
Zr794      Zr  0.25110721  0.70385511  0.30415502     2.70100
O795        O  0.24926784  0.64675435  0.29961657    -0.79900
O796        O  0.25110075  0.70253050  0.37390643    -0.99000
Zr797      Zr  0.29813338  0.75182186  0.25139180     2.21500
Zr798      Zr  0.20667006  0.75408139  0.24883138     2.11100
O799        O  0.22873012  0.70628094  0.24670858    -2.47600
O800        O  0.27468334  0.70519164  0.24792626    -0.79700
O801        O  0.22963586  0.75570715  0.19159375    -0.71900
O802        O  0.27522533  0.74966419  0.30883886    -2.32800
O803        O  0.27603177  0.75466831  0.19299820    -2.29000
O804        O  0.22835071  0.75078845  0.30741248    -0.73600
H805        H  0.22030761  0.81942709  0.25327308     0.78400
H806        H  0.28541108  0.74858171  0.33113231     0.79500
H807        H  0.21824561  0.68824397  0.24553513     0.81700
H808        H  0.28653408  0.75525227  0.17113504     0.79300
H809        H  0.23738191  0.77329253  0.38260361     0.42300
H810        H  0.25329136  0.68002523  0.38040976     0.41300
H811        H  0.25919412  0.64162092  0.27707361     0.41000
H812        H  0.23927386  0.64493372  0.20733242     0.38900
H813        H  0.24486046  0.73407928  0.11600394     0.42000
H814        H  0.26701371  0.79515333  0.11777167     0.36800
H815        H  0.25345958  0.86286218  0.22986426     0.42900
H816        H  0.24154107  0.86216931  0.30684289     0.39400
H817        H  0.24596889  0.64554709  0.16380628     0.44300
H818        H  0.25290074  0.82686844  0.12038399     0.43000
H819        H  0.24973528  0.85536066  0.34902360     0.43100
H820        H  0.26629356  0.71264956  0.38152193     0.43500
C821        C  0.08352019  0.58343858  0.07513994    -0.20000
C822        C  0.08251347  0.61645053  0.07088629     0.36300
C823        C  0.10045101  0.63516715  0.08730343    -0.25900
C824        C  0.11938426  0.62145402  0.10737770     0.02700
C825        C  0.12075637  0.58845509  0.11089546     0.27500
C826        C  0.10279701  0.56967356  0.09449128    -0.25100
N827        N  0.06351520  0.63073672  0.04936128    -0.82400
H828        H  0.09968199  0.66055594  0.08458529     0.13300
C829        C  0.13723679  0.64215862  0.12558966     0.02700
N830        N  0.14010555  0.57430050  0.13169567    -0.81000
H831        H  0.10355337  0.54430090  0.09743556     0.18100
C832        C  0.13423713  0.65055938  0.16400081    -0.25900
C833        C  0.15076415  0.66995248  0.18254488     0.36200
C834        C  0.17086735  0.68140853  0.16219524    -0.19900
C835        C  0.17349670  0.67339496  0.12338975    -0.25100
C836        C  0.15683695  0.65386052  0.10485669     0.27500
H837        H  0.11903711  0.64165612  0.17982800     0.13300
N838        N  0.14715214  0.67632006  0.22238490    -0.82400
H839        H  0.18872377  0.68221290  0.10758117     0.18200
N840        N  0.15966600  0.64587726  0.06514382    -0.81000
H841        H  0.14488068  0.70051263  0.22608430     0.33800
H842        H  0.16218636  0.66890161  0.23762581     0.38300
H843        H  0.17498050  0.65650276  0.05396715     0.33700
H844        H  0.16236212  0.62158300  0.06350553     0.30400
H845        H  0.13821715  0.54981777  0.13226945     0.33700
H846        H  0.15581221  0.57907841  0.11669586     0.30400
H847        H  0.06499268  0.62305768  0.02102825     0.38300
H848        H  0.06551590  0.65520612  0.04877884     0.33800
C849        C  0.16947057  0.67725533  0.32768200    -0.20000
C850        C  0.14947243  0.69112619  0.34543369     0.38300
C851        C  0.13195026  0.67157744  0.36181858    -0.25900
C852        C  0.13381228  0.63874094  0.35963497     0.02700
C853        C  0.15329836  0.62495084  0.34081749     0.27500
C854        C  0.17106923  0.64436191  0.32532433    -0.25100
N855        N  0.14745597  0.72478558  0.34802343    -0.82400
H856        H  0.11679776  0.68187893  0.37631715     0.13300
C857        C  0.11555571  0.61877146  0.37788540     0.02700
N858        N  0.15490656  0.59129082  0.33758911    -0.81000
H859        H  0.18622174  0.63379137  0.31110347     0.18100
C860        C  0.09692648  0.60664196  0.35558632    -0.25900
C861        C  0.07991405  0.58640797  0.37171695     0.36200
C862        C  0.08152436  0.57828969  0.41079598    -0.19900
C863        C  0.10032305  0.59032115  0.43299545    -0.25100
C864        C  0.11744592  0.61046883  0.41682991     0.27500
H865        H  0.09577152  0.61263665  0.32546528     0.13300
N866        N  0.06141099  0.57347745  0.34815031    -0.82400
H867        H  0.10142827  0.58437970  0.46314038     0.18200
N868        N  0.13669537  0.62263422  0.43970809    -0.81000
H869        H  0.05169681  0.59211497  0.33638097     0.33800
H870        H  0.06941535  0.56117093  0.32570615     0.38300
H871        H  0.13544919  0.61434586  0.46783998     0.33700
H872        H  0.15260762  0.61370530  0.42865619     0.30400
H873        H  0.17014247  0.58493231  0.32225890     0.33700
H874        H  0.15699024  0.58210990  0.36517194     0.30400
H875        H  0.14449223  0.73342948  0.32039482     0.38300
H876        H  0.13241497  0.73096271  0.36394264     0.33800
C877        C  0.08486686  0.93068316  0.08446192    -0.20000
C878        C  0.08570615  0.92602649  0.12444155     0.36300
C879        C  0.10359887  0.90683096  0.14009740    -0.25900
C880        C  0.12040354  0.89225065  0.11645890     0.02700
C881        C  0.11948243  0.89663949  0.07652379     0.27500
C882        C  0.10181471  0.91615048  0.06089657    -0.25100
N883        N  0.06848254  0.94088137  0.14886356    -0.82400
H884        H  0.10443841  0.90307138  0.17076927     0.13300
C885        C  0.13873332  0.87202869  0.13394173     0.02700
N886        N  0.13601759  0.88051741  0.05205083    -0.81000
H887        H  0.10079441  0.91928920  0.03012259     0.18100
C888        C  0.13403889  0.83988280  0.13857014    -0.25900
C889        C  0.15105119  0.81979989  0.15517979     0.36200
C890        C  0.17321280  0.83233357  0.16716644    -0.19900
C891        C  0.17781861  0.86462308  0.16211451    -0.25100
C892        C  0.16066113  0.88468460  0.14604779     0.27500
H893        H  0.11704746  0.83049558  0.12909191     0.13300
N894        N  0.14603397  0.78677965  0.15931342    -0.82400
H895        H  0.19468220  0.87439594  0.17158751     0.18200
N896        N  0.16511802  0.91793198  0.14287636    -0.81000
H897        H  0.12889146  0.78154668  0.14932899     0.33800
H898        H  0.15790455  0.77457459  0.14173989     0.38300
H899        H  0.18196650  0.92353655  0.15380357     0.33700
H900        H  0.16542999  0.92370889  0.11378875     0.30400
H901        H  0.13254983  0.88572635  0.02330211     0.33700
H902        H  0.15308384  0.88915264  0.05798760     0.30400
H903        H  0.07095912  0.96521037  0.14663593     0.38300
H904        H  0.07157897  0.93495330  0.17750870     0.33800
C905        C  0.33330724  0.67833133  0.16544727    -0.20000
C906        C  0.35357975  0.66798700  0.18606569     0.36300
C907        C  0.37093178  0.64982798  0.16738788    -0.25900
C908        C  0.36852051  0.64167675  0.12866866     0.02700
C909        C  0.34839277  0.65206191  0.10798761     0.27500
C910        C  0.33094164  0.67013364  0.12664025    -0.25100
N911        N  0.35620813  0.67518482  0.22608406    -0.82400
H912        H  0.38625975  0.64142672  0.18330023     0.13300
C913        C  0.38707491  0.62171851  0.11055998     0.02700
N914        N  0.34582853  0.64430333  0.06813408    -0.81000
H915        H  0.31549437  0.67810852  0.11070548     0.18100
C916        C  0.38068628  0.59241268  0.09526245    -0.25900
C917        C  0.39789325  0.57208142  0.07969218     0.36200
C918        C  0.42220041  0.58144038  0.07902619    -0.19900
C919        C  0.42839365  0.61104633  0.09427729    -0.25100
C920        C  0.41113598  0.63123371  0.10983660     0.27500
H921        H  0.36218379  0.58507494  0.09628112     0.13300
N922        N  0.39067360  0.54188985  0.06518019    -0.82400
H923        H  0.44679703  0.61879084  0.09370608     0.18200
N924        N  0.41790755  0.66149645  0.12473951    -0.81000
H925        H  0.37220140  0.53902483  0.06721426     0.33800
H926        H  0.39824979  0.52480237  0.08291276     0.38300
H927        H  0.43629434  0.66497021  0.12220143     0.33700
H928        H  0.40973055  0.67865598  0.10774637     0.30400
H929        H  0.33005423  0.65375688  0.05707320     0.33700
H930        H  0.35984338  0.65507961  0.05335916     0.30400
H931        H  0.34249773  0.66364677  0.24075020     0.38300
H932        H  0.37220194  0.66610383  0.23679649     0.33800
C933        C  0.33319457  0.82612216  0.33625862    -0.20000
C934        C  0.35538489  0.81310490  0.34707382     0.36300
C935        C  0.37274562  0.83261475  0.36393693    -0.25900
C936        C  0.36823087  0.86460209  0.37025963     0.02700
C937        C  0.34616551  0.87761453  0.35962553     0.27500
C938        C  0.32882229  0.85822137  0.34284117    -0.25100
N939        N  0.36005188  0.78016979  0.34153217    -0.82400
H940        H  0.38981545  0.82289708  0.37237473     0.13300
C941        C  0.38678941  0.88443155  0.38799371     0.02700
N942        N  0.34165131  0.91056542  0.36541968    -0.81000
H943        H  0.31190385  0.86834720  0.33432275     0.18100
C944        C  0.40209451  0.90176187  0.36436965    -0.25900
C945        C  0.41958760  0.92154593  0.37993382     0.36200
C946        C  0.42208961  0.92337157  0.42027688    -0.19900
C947        C  0.40644366  0.90635605  0.44387740    -0.25100
C948        C  0.38873569  0.88686299  0.42806460     0.27500
H949        H  0.40020884  0.90019711  0.33353215     0.13300
N950        N  0.43396707  0.93977291  0.35394522    -0.82400
H951        H  0.40831613  0.90793720  0.47471703     0.18200
N952        N  0.37291863  0.86924402  0.45239208    -0.81000
H953        H  0.42248820  0.95444679  0.33850492     0.33800
H954        H  0.44564092  0.95477861  0.36833713     0.38300
H955        H  0.37694572  0.87331080  0.48120674     0.33700
H956        H  0.35565316  0.87772291  0.44793594     0.30400
H957        H  0.32465379  0.91651843  0.35547089     0.33700
H958        H  0.34165567  0.91473901  0.39490218     0.30400
H959        H  0.34826213  0.76757946  0.35896899     0.38300
H960        H  0.37724891  0.77449070  0.35081703     0.33800
C961        C  0.42077915  0.57500202  0.41544289    -0.20000
C962        C  0.42383907  0.58826214  0.37855003     0.36300
C963        C  0.40595388  0.60754002  0.36316985    -0.25900
C964        C  0.38505101  0.61372128  0.38358637     0.02700
C965        C  0.38169380  0.60016948  0.42006521     0.27500
C966        C  0.39956105  0.58077379  0.43557881    -0.25100
N967        N  0.44497517  0.58192579  0.35664349    -0.82400
H968        H  0.40820023  0.61766455  0.33489865     0.13300
C969        C  0.36668523  0.63402966  0.36582777     0.02700
N970        N  0.36035094  0.60660067  0.44137031    -0.81000
H971        H  0.39720123  0.57088300  0.46394494     0.18100
C972        C  0.34455212  0.62094387  0.35634484    -0.25900
C973        C  0.32693734  0.63896591  0.33806410     0.36200
C974        C  0.33138406  0.67111793  0.32991468    -0.19900
C975        C  0.35380346  0.68401354  0.33892897    -0.25100
C976        C  0.37148866  0.66577285  0.35688509     0.27500
H977        H  0.34123466  0.59631801  0.36251868     0.13300
N978        N  0.30480955  0.62445987  0.32692297    -0.82400
H979        H  0.35740363  0.70852630  0.33258001     0.18200
N980        N  0.39423725  0.67934158  0.36640182    -0.81000
H981        H  0.30430405  0.60088139  0.33548375     0.33800
H982        H  0.30415373  0.62448112  0.29699650     0.38300
H983        H  0.39502176  0.70285404  0.35762358     0.33700
H984        H  0.39576417  0.67935053  0.39624372     0.30400
H985        H  0.36069942  0.59495663  0.46776728     0.33700
H986        H  0.36014017  0.63069401  0.44738387     0.30400
H987        H  0.44507239  0.55787762  0.35035599     0.38300
H988        H  0.44450124  0.59378130  0.33039736     0.33800
C989        C  0.08449594  0.92372065  0.42293409    -0.20000
C990        C  0.08651465  0.89135583  0.43243506     0.36300
C991        C  0.10437946  0.87336258  0.41515029    -0.25900
C992        C  0.12023511  0.88679024  0.38883358     0.02700
C993        C  0.11852048  0.91903483  0.37981707     0.27500
C994        C  0.10076614  0.93730115  0.39730017    -0.25100
N995        N  0.07100248  0.87594723  0.45943207    -0.82400
H996        H  0.10578814  0.84855559  0.42207599     0.13300
C997        C  0.13834472  0.86661301  0.37049084     0.02700
N998        N  0.13462072  0.93289888  0.35258509    -0.81000
H999        H  0.09921647  0.96205853  0.39021781     0.18100
C1000       C  0.13674392  0.86070046  0.33108617    -0.25900
C1001       C  0.15365728  0.84176543  0.31257570     0.36200
C1002       C  0.17231272  0.82823413  0.33420124    -0.19900
C1003       C  0.17389856  0.83426619  0.37362947    -0.25100
C1004       C  0.15706527  0.85335250  0.39202908     0.27500
H1005       H  0.12232709  0.87112223  0.31475408     0.13300
N1006       N  0.15233438  0.83693662  0.27186791    -0.82400
H1007       H  0.18835751  0.82406899  0.39008618     0.18200
N1008       N  0.15897569  0.85958876  0.43236727    -0.81000
H1009       H  0.13752588  0.84848289  0.26031634     0.33800
H1010       H  0.16738024  0.84744539  0.25962473     0.38300
H1011       H  0.17371468  0.84796177  0.44403061     0.33700
H1012       H  0.16216281  0.88368493  0.43567520     0.30400
H1013       H  0.13080440  0.95676945  0.34874756     0.33700
H1014       H  0.15179745  0.93167576  0.36415544     0.30400
H1015       H  0.05901171  0.89153834  0.47192515     0.38300
H1016       H  0.08160675  0.86753844  0.48186249     0.33800
C1017       C  0.42268660  0.92455017  0.08074716    -0.20000
C1018       C  0.40734101  0.93560946  0.10987596     0.36300
C1019       C  0.39064447  0.91491803  0.12601386    -0.25900
C1020       C  0.38891393  0.88350282  0.11402594     0.02700
C1021       C  0.40418061  0.87250877  0.08470058     0.27500
C1022       C  0.42079316  0.89324710  0.06845845    -0.25100
N1023       N  0.40876202  0.96701206  0.12497776    -0.82400
H1024       H  0.37900122  0.92337835  0.14848183     0.13300
C1025       C  0.37091222  0.86304361  0.13265429     0.02700
N1026       N  0.40363479  0.84060273  0.07100115    -0.81000
H1027       H  0.43254118  0.88471592  0.04615962     0.18100
C1028       C  0.35025986  0.85492513  0.11238248    -0.25900
C1029       C  0.33224918  0.83694449  0.12960853     0.36200
C1030       C  0.33480352  0.82681484  0.16793692    -0.19900
C1031       C  0.35576503  0.83445486  0.18801189    -0.25100
C1032       C  0.37380469  0.85268505  0.17077142     0.27500
H1033       H  0.34803021  0.86284821  0.08308067     0.13300
N1034       N  0.31147128  0.82875480  0.10787461    -0.82400
H1035       H  0.35779258  0.82689972  0.21748893     0.18200
N1036       N  0.39487628  0.86115018  0.19188384    -0.81000
H1037       H  0.30329264  0.84957202  0.09881883     0.33800
H1038       H  0.31693576  0.81639865  0.08357692     0.38300
H1039       H  0.39414006  0.85203461  0.21968327     0.33700
H1040       H  0.40940701  0.85047663  0.17847723     0.30400
H1041       H  0.42020568  0.83052494  0.07709382     0.33700
H1042       H  0.39100105  0.82700643  0.08538584     0.30400
H1043       H  0.42214406  0.98022370  0.11184344     0.38300
H1044       H  0.39256522  0.97813678  0.11905549     0.33800
O1045       O  0.46281625  0.93548432  0.92823804    -0.75400
O1046       O  0.43500612  0.96413202  0.96083841    -0.54300
C1047       C  0.44119257  0.94233600  0.93736460     0.78400
O1048       O  0.04485257  0.94452383  0.57807398    -0.60000
O1049       O  0.07186088  0.96999933  0.54016293    -0.53000
C1050       C  0.06622452  0.95056812  0.56698617     0.70400
O1051       O  0.46473219  0.93794720  0.57488171    -0.74500
O1052       O  0.43589748  0.96598456  0.54375412    -0.55100
C1053       C  0.44284781  0.94433520  0.56708703     0.76400
O1054       O  0.04352773  0.93485332  0.93003901    -0.59700
O1055       O  0.07134183  0.96701846  0.95775865    -0.52800
C1056       C  0.06514393  0.94321218  0.93729336     0.73000
Zr1057     Zr  0.50305717  0.95371738  0.94378040     2.54700
O1058       O  0.50228491  0.89644783  0.94278545    -0.80200
O1059       O  0.00484808  0.95882084  0.87406797    -0.93700
Zr1060     Zr  0.50400149  0.95823535  0.55861267     2.64700
O1061       O  0.50547599  0.90103045  0.56161191    -0.98600
O1062       O  0.00382124  0.96561305  0.62821985    -0.80700
O1063       O  0.48030111  0.95475047  0.00092114    -0.84000
O1064       O  0.02635441  0.95548554  0.00070478    -2.18700
O1065       O  0.04125693  0.56379757  0.92132276    -0.67400
O1066       O  0.06981589  0.53881474  0.95648732    -0.52000
C1067       C  0.06305457  0.55878340  0.93097546     0.71300
O1068       O  0.46243117  0.56823664  0.56743742    -0.60300
O1069       O  0.43460465  0.53711688  0.53895466    -0.52300
C1070       C  0.44064660  0.56048904  0.56020137     0.73200
O1071       O  0.04239513  0.57105335  0.56595155    -0.71700
O1072       O  0.07050853  0.54043924  0.53711947    -0.50400
C1073       C  0.06409495  0.56368663  0.55827183     0.74500
O1074       O  0.46201936  0.56422899  0.92604861    -0.67100
O1075       O  0.43448066  0.53589901  0.95950261    -0.54300
C1076       C  0.44043625  0.55720664  0.93498292     0.72900
Zr1077     Zr  0.00171773  0.54635194  0.94070534     2.77500
O1078       O  0.00098690  0.60342931  0.93394373    -0.97800
O1079       O  0.99936100  0.53809845  0.87183377    -0.78600
Zr1080     Zr  0.00270435  0.55034120  0.55272654     2.70100
O1081       O  0.00263575  0.60745233  0.55816948    -0.79900
O1082       O  0.00404508  0.54488008  0.62205673    -0.99000
Zr1083     Zr  0.45712834  0.50081783  0.49993229     2.21500
Zr1084     Zr  0.04908245  0.00287583  0.99811073     2.11100
O1085       O  0.02486687  0.55004815  0.49501677    -2.47600
O1086       O  0.47938469  0.54845646  0.49676665    -0.79700
O1087       O  0.02668178  0.00071590  0.94012528    -0.71900
O1088       O  0.47992856  0.50355342  0.55756927    -2.32800
O1089       O  0.47898614  0.50002329  0.94284404    -2.29000
O1090       O  0.02712205  0.00516203  0.55659339    -0.73600
H1091       H  0.03705562  0.93784023  0.50298100     0.78400
H1092       H  0.46973754  0.50408488  0.57981394     0.79500
H1093       H  0.03482251  0.56860184  0.99558114     0.81700
H1094       H  0.46828242  0.49936714  0.92117079     0.79300
H1095       H  0.51018451  0.98533486  0.63250141     0.42300
H1096       H  0.02047380  0.53770622  0.62766543     0.41300
H1097       H  0.50757205  0.61431530  0.52986557     0.41000
H1098       H  0.01511390  0.61108224  0.94823408     0.38900
H1099       H  0.01388195  0.52597314  0.86553523     0.42000
H1100       H  0.49086638  0.97167826  0.86736583     0.36800
H1101       H  0.50737788  0.89018590  0.96886403     0.42900
H1102       H  0.01965618  0.89480889  0.54660163     0.39400
H1103       H  0.00480943  0.60737362  0.90668913     0.44300
H1104       H  0.49920737  0.93660519  0.86513514     0.43000
H1105       H  0.51107350  0.89624882  0.58787478     0.43100
H1106       H  0.00356767  0.56677722  0.63165253     0.43500
O1107       O  0.29419022  0.81634101  0.67805612    -0.75400
O1108       O  0.32143629  0.78719202  0.71118795    -0.54300
C1109       C  0.31571657  0.80867468  0.68682456     0.78400
O1110       O  0.21194486  0.81264269  0.82641442    -0.60000
O1111       O  0.18419541  0.78809272  0.78906041    -0.53000
C1112       C  0.19036886  0.80773303  0.81522635     0.70400
O1113       O  0.29225590  0.81263446  0.82730232    -0.74500
O1114       O  0.32045483  0.78536880  0.79420681    -0.55100
C1115       C  0.31402039  0.80611727  0.81888809     0.76400
O1116       O  0.21383137  0.81956420  0.67812562    -0.59700
O1117       O  0.18518134  0.79019727  0.70769228    -0.52800
C1118       C  0.19192072  0.81261490  0.68538407     0.73000
Zr1119     Zr  0.25364899  0.80117580  0.69532495     2.54700
O1120       O  0.25568830  0.85830680  0.69920640    -0.80200
O1121       O  0.25265986  0.80143885  0.62554091    -0.93700
Zr1122     Zr  0.25221492  0.79588748  0.80968769     2.64700
O1123       O  0.25306903  0.85259381  0.81984832    -0.98600
O1124       O  0.25203912  0.78675139  0.87857024    -0.80700
O1125       O  0.27576992  0.79899541  0.75330996    -0.84000
O1126       O  0.23028694  0.79999178  0.75177727    -2.18700
O1127       O  0.21215011  0.69250179  0.67040544    -0.67400
O1128       O  0.18450919  0.71919647  0.70536366    -0.52000
C1129       C  0.19051429  0.69862988  0.68023482     0.71300
O1130       O  0.29079516  0.68337143  0.81785673    -0.60300
O1131       O  0.31953224  0.71380292  0.79023889    -0.52300
C1132       C  0.31271126  0.69035241  0.81090968     0.73200
O1133       O  0.21074405  0.68692021  0.81879402    -0.71700
O1134       O  0.18362883  0.71847602  0.78874105    -0.50400
C1135       C  0.18926878  0.69559336  0.81113567     0.74500
O1136       O  0.29246629  0.69046996  0.67335175    -0.67100
O1137       O  0.32020765  0.71573470  0.71014823    -0.54300
C1138       C  0.31405243  0.69565887  0.68437946     0.72900
Zr1139     Zr  0.25241186  0.70860334  0.68920304     2.77500
O1140       O  0.25201834  0.65153014  0.68291358    -0.97800
O1141       O  0.25397454  0.71772357  0.62045297    -0.78600
Zr1142     Zr  0.25119833  0.70341501  0.80290341     2.70100
O1143       O  0.24948498  0.64653536  0.79619863    -0.79900
O1144       O  0.25179542  0.70223675  0.87257334    -0.99000
Zr1145     Zr  0.29827490  0.75159414  0.75093553     2.21500
Zr1146     Zr  0.20665691  0.75340657  0.74795291     2.11100
O1147       O  0.22892300  0.70587470  0.74544690    -2.47600
O1148       O  0.27472080  0.70521772  0.74678558    -0.79700
O1149       O  0.22951909  0.75544013  0.69052175    -0.71900
O1150       O  0.27519067  0.74920102  0.80820986    -2.32800
O1151       O  0.27649767  0.75439927  0.69228943    -2.29000
O1152       O  0.22818679  0.75006750  0.80665063    -0.73600
H1153       H  0.22044384  0.81861429  0.75256794     0.78400
H1154       H  0.28527060  0.74791895  0.83062100     0.79500
H1155       H  0.21853446  0.68774477  0.74424852     0.81700
H1156       H  0.28710066  0.75494055  0.67054335     0.79300
H1157       H  0.24905085  0.80771998  0.88989633     0.42300
H1158       H  0.23812543  0.71548509  0.88029346     0.41300
H1159       H  0.25710313  0.64241649  0.77115588     0.41000
H1160       H  0.23995490  0.64423614  0.70160995     0.38900
H1161       H  0.25716049  0.69672212  0.60937531     0.42000
H1162       H  0.26578109  0.78730092  0.61771699     0.36800
H1163       H  0.26197063  0.86253629  0.72521311     0.42900
H1164       H  0.24209369  0.86126149  0.80028685     0.39400
H1165       H  0.24471819  0.64744693  0.65756925     0.44300
H1166       H  0.25819261  0.82275070  0.61824098     0.43000
H1167       H  0.24478970  0.85595248  0.84451830     0.43100
H1168       H  0.24689691  0.68051991  0.87926075     0.43500
C1169       C  0.08294035  0.58376105  0.57473241    -0.20000
C1170       C  0.08167364  0.61687824  0.57193126     0.36300
C1171       C  0.09960858  0.63532852  0.58881683    -0.25900
C1172       C  0.11867091  0.62125662  0.60818531     0.02700
C1173       C  0.12000989  0.58824353  0.61104091     0.27500
C1174       C  0.10219112  0.56972071  0.59387633    -0.25100
N1175       N  0.06243082  0.63156041  0.55138966    -0.82400
H1176       H  0.09878809  0.66076459  0.58689515     0.13300
C1177       C  0.13691365  0.64152735  0.62599286     0.02700
N1178       N  0.13918443  0.57380564  0.63197893    -0.81000
H1179       H  0.10303539  0.54430515  0.59607428     0.18100
C1180       C  0.13448511  0.64968624  0.66454698    -0.25900
C1181       C  0.15144721  0.66860442  0.68272666     0.36200
C1182       C  0.17132388  0.68002474  0.66178132    -0.19900
C1183       C  0.17361742  0.67178706  0.62296994    -0.25100
C1184       C  0.15656064  0.65258032  0.60485316     0.27500
H1185       H  0.11939085  0.64095437  0.68076927     0.13300
N1186       N  0.14849428  0.67450620  0.72281827    -0.82400
H1187       H  0.18879947  0.68028456  0.60679767     0.18200
N1188       N  0.15899837  0.64428866  0.56515484    -0.81000
H1189       H  0.14620165  0.69862289  0.72708449     0.33800
H1190       H  0.16377453  0.66692756  0.73729181     0.38300
H1191       H  0.17441973  0.65438801  0.55364595     0.33700
H1192       H  0.16127383  0.61990942  0.56365865     0.30400
H1193       H  0.13720799  0.54933546  0.63226928     0.33700
H1194       H  0.15501020  0.57860893  0.61731984     0.30400
H1195       H  0.06384487  0.62491340  0.52266580     0.38300
H1196       H  0.06416285  0.65606018  0.55208423     0.33800
C1197       C  0.16986099  0.67682660  0.82845547    -0.20000
C1198       C  0.15002537  0.69085443  0.84650358     0.38300
C1199       C  0.13283353  0.67148654  0.86415509    -0.25900
C1200       C  0.13479418  0.63861343  0.86291064     0.02700
C1201       C  0.15416071  0.62463551  0.84394817     0.27500
C1202       C  0.17166634  0.64388902  0.82734013    -0.25100
N1203       N  0.14778018  0.72453200  0.84792116    -0.82400
H1204       H  0.11775094  0.68196685  0.87864591     0.13300
C1205       C  0.11626108  0.61881284  0.88091295     0.02700
N1206       N  0.15576805  0.59094196  0.84126553    -0.81000
H1207       H  0.18671821  0.63313761  0.81304478     0.18100
C1208       C  0.09671156  0.60902380  0.85892763    -0.25900
C1209       C  0.07919962  0.58925304  0.87457809     0.36200
C1210       C  0.08152711  0.57853342  0.91267243    -0.19900
C1211       C  0.10114544  0.58847425  0.93463820    -0.25100
C1212       C  0.11844334  0.60878318  0.91922325     0.27500
H1213       H  0.09508466  0.61674141  0.82944650     0.13300
N1214       N  0.05926814  0.57982828  0.85155294    -0.82400
H1215       H  0.10268458  0.58098604  0.96421937     0.18200
N1216       N  0.13796023  0.61971041  0.94243553    -0.81000
H1217       H  0.05028256  0.60012033  0.84269780     0.33800
H1218       H  0.06576718  0.56847522  0.82719372     0.38300
H1219       H  0.13668175  0.61063945  0.97020925     0.33700
H1220       H  0.15370303  0.61075665  0.93084155     0.30400
H1221       H  0.17080143  0.58442307  0.82552665     0.33700
H1222       H  0.15822218  0.58207074  0.86891159     0.30400
H1223       H  0.14428401  0.73240498  0.82010942     0.38300
H1224       H  0.13296702  0.73091842  0.86426075     0.33800
C1225       C  0.08554705  0.93255298  0.58531187    -0.20000
C1226       C  0.08627940  0.92790827  0.62533162     0.36300
C1227       C  0.10411737  0.90868229  0.64117672    -0.25900
C1228       C  0.12098054  0.89400940  0.61770722     0.02700
C1229       C  0.12011882  0.89832906  0.57772988     0.27500
C1230       C  0.10246460  0.91779926  0.56191878    -0.25100
N1231       N  0.06895324  0.94273548  0.64959959    -0.82400
H1232       H  0.10485275  0.90495224  0.67186183     0.13300
C1233       C  0.13911005  0.87344027  0.63529879     0.02700
N1234       N  0.13661515  0.88204557  0.55333660    -0.81000
H1235       H  0.10143276  0.92073126  0.53111700     0.18100
C1236       C  0.13340349  0.84191253  0.64268719    -0.25900
C1237       C  0.15028876  0.82135781  0.65881444     0.36200
C1238       C  0.17337199  0.83277790  0.66762467    -0.19900
C1239       C  0.17884432  0.86456398  0.66037885    -0.25100
C1240       C  0.16186906  0.88509083  0.64466559     0.27500
H1241       H  0.11573206  0.83333300  0.63559350     0.13300
N1242       N  0.14413294  0.78899203  0.66580116    -0.82400
H1243       H  0.19631338  0.87364849  0.66779523     0.18200
N1244       N  0.16736127  0.91789647  0.63938255    -0.81000
H1245       H  0.12642651  0.78459877  0.65801747     0.33800
H1246       H  0.15472205  0.77512225  0.64794675     0.38300
H1247       H  0.18471184  0.92280243  0.64864329     0.33700
H1248       H  0.16696074  0.92275507  0.61007097     0.30400
H1249       H  0.13306804  0.88702213  0.52455508     0.33700
H1250       H  0.15369668  0.89073000  0.55895656     0.30400
H1251       H  0.07139749  0.96706881  0.64736299     0.38300
H1252       H  0.07196074  0.93683387  0.67827737     0.33800
C1253       C  0.33308243  0.67697866  0.66592662    -0.20000
C1254       C  0.35236554  0.66463758  0.68720388     0.36300
C1255       C  0.36978850  0.64660952  0.66848699    -0.25900
C1256       C  0.36842091  0.64069773  0.62897570     0.02700
C1257       C  0.34918933  0.65316948  0.60770903     0.27500
C1258       C  0.33160511  0.67086221  0.62649743    -0.25100
N1259       N  0.35385302  0.66971363  0.72784346    -0.82400
H1260       H  0.38429916  0.63656517  0.68494454     0.13300
C1261       C  0.38692726  0.62072400  0.61058634     0.02700
N1262       N  0.34769293  0.64802028  0.56709166    -0.81000
H1263       H  0.31683318  0.68037744  0.61016102     0.18100
C1264       C  0.37994849  0.59428015  0.58931168    -0.25900
C1265       C  0.39682011  0.57432889  0.57219322     0.36200
C1266       C  0.42151932  0.58047511  0.57734919    -0.19900
C1267       C  0.42831907  0.60726227  0.59852640    -0.25100
C1268       C  0.41139051  0.62756488  0.61465144     0.27500
H1269       H  0.36113559  0.58896369  0.58635844     0.13300
N1270       N  0.38875302  0.54823082  0.54941345    -0.82400
H1271       H  0.44702490  0.61285663  0.60220563     0.18200
N1272       N  0.41896516  0.65537541  0.63473732    -0.81000
H1273       H  0.37019981  0.54853469  0.54641676     0.33800
H1274       H  0.39284554  0.52766220  0.56441425     0.38300
H1275       H  0.43756415  0.65705409  0.63514253     0.33700
H1276       H  0.41277036  0.67485236  0.61936030     0.30400
H1277       H  0.33240583  0.65858770  0.55576669     0.33700
H1278       H  0.36229919  0.65924084  0.55443204     0.30400
H1279       H  0.33935328  0.65821605  0.74046103     0.38300
H1280       H  0.36920840  0.65929346  0.73913649     0.33800
C1281       C  0.33271741  0.82490735  0.83832500    -0.20000
C1282       C  0.35540574  0.81245191  0.84732619     0.36300
C1283       C  0.37266074  0.83207836  0.86436943    -0.25900
C1284       C  0.36765115  0.86371609  0.87230811     0.02700
C1285       C  0.34500594  0.87604305  0.86381032     0.27500
C1286       C  0.32770810  0.85646156  0.84722241    -0.25100
N1287       N  0.36078674  0.78004397  0.83939288    -0.82400
H1288       H  0.39013162  0.82281056  0.87128520     0.13300
C1289       C  0.38635416  0.88395734  0.88917236     0.02700
N1290       N  0.33988022  0.90858984  0.87132142    -0.81000
H1291       H  0.31037954  0.86617112  0.84027559     0.18100
C1292       C  0.40027697  0.90282382  0.86501219    -0.25900
C1293       C  0.41803603  0.92267053  0.87981467     0.36200
C1294       C  0.42204046  0.92334081  0.91990296    -0.19900
C1295       C  0.40778281  0.90476834  0.94406093    -0.25100
C1296       C  0.38994143  0.88502394  0.92904193     0.27500
H1297       H  0.39720940  0.90223765  0.83436525     0.13300
N1298       N  0.43124965  0.94196264  0.85337921    -0.82400
H1299       H  0.41083656  0.90537047  0.97471194     0.18200
N1300       N  0.37560951  0.86582139  0.95396230    -0.81000
H1301       H  0.41911001  0.95698259  0.83986654     0.33800
H1302       H  0.44345152  0.95652847  0.86733690     0.38300
H1303       H  0.38074057  0.86899994  0.98249539     0.33700
H1304       H  0.35800731  0.87367331  0.95181723     0.30400
H1305       H  0.32252396  0.91412182  0.86269619     0.33700
H1306       H  0.34052782  0.91189432  0.90095154     0.30400
H1307       H  0.34965367  0.76615876  0.85648894     0.38300
H1308       H  0.37828780  0.77476416  0.84747675     0.33800
C1309       C  0.42126904  0.57549468  0.91586917    -0.20000
C1310       C  0.42462292  0.58892701  0.87909026     0.36300
C1311       C  0.40661728  0.60766357  0.86303533    -0.25900
C1312       C  0.38534796  0.61336154  0.88269728     0.02700
C1313       C  0.38180044  0.59985645  0.91917737     0.27500
C1314       C  0.39972110  0.58083074  0.93526940    -0.25100
N1315       N  0.44618707  0.58336004  0.85795363    -0.82400
H1316       H  0.40908191  0.61777311  0.83480466     0.13300
C1317       C  0.36690450  0.63329778  0.86429682     0.02700
N1318       N  0.36020686  0.60598629  0.93995119    -0.81000
H1319       H  0.39712135  0.57089340  0.96355574     0.18100
C1320       C  0.34461124  0.62018957  0.85565973    -0.25900
C1321       C  0.32685482  0.63801712  0.83734820     0.36200
C1322       C  0.33136000  0.66997913  0.82819147    -0.19900
C1323       C  0.35397340  0.68276294  0.83602919    -0.25100
C1324       C  0.37174349  0.66479433  0.85411103     0.27500
H1325       H  0.34123641  0.59572715  0.86265667     0.13300
N1326       N  0.30450825  0.62352760  0.82734081    -0.82400
H1327       H  0.35765753  0.70709275  0.82881617     0.18200
N1328       N  0.39460006  0.67848484  0.86263977    -0.81000
H1329       H  0.30398635  0.60012741  0.83659952     0.33800
H1330       H  0.30346396  0.62297486  0.79744880     0.38300
H1331       H  0.39538619  0.70177074  0.85299902     0.33700
H1332       H  0.39637622  0.67921573  0.89242989     0.30400
H1333       H  0.36039979  0.59437078  0.96636871     0.33700
H1334       H  0.35973885  0.63008009  0.94592160     0.30400
H1335       H  0.44678017  0.55937109  0.85142662     0.38300
H1336       H  0.44592898  0.59539760  0.83182098     0.33800
C1337       C  0.08419945  0.92351072  0.92137623    -0.20000
C1338       C  0.08702093  0.89154885  0.93219884     0.36300
C1339       C  0.10469127  0.87352867  0.91449037    -0.25900
C1340       C  0.11973492  0.88663405  0.88673468     0.02700
C1341       C  0.11740784  0.91860141  0.87669510     0.27500
C1342       C  0.09958019  0.93676890  0.89413380    -0.25100
N1343       N  0.07256317  0.87662164  0.96103096    -0.82400
H1344       H  0.10669148  0.84899438  0.92241566     0.13300
C1345       C  0.13789488  0.86645293  0.86855800     0.02700
N1346       N  0.13320844  0.93240389  0.84897546    -0.81000
H1347       H  0.09745874  0.96126492  0.88614779     0.18100
C1348       C  0.13589516  0.85930964  0.82951913    -0.25900
C1349       C  0.15267207  0.83985261  0.81145153     0.36200
C1350       C  0.17154993  0.82691383  0.83323881    -0.19900
C1351       C  0.17345597  0.83417551  0.87233084    -0.25100
C1352       C  0.15693561  0.85409782  0.89011950     0.27500
H1353       H  0.12127841  0.86916450  0.81311876     0.13300
N1354       N  0.15096753  0.83392167  0.77099775    -0.82400
H1355       H  0.18806984  0.82455316  0.88893965     0.18200
N1356       N  0.15960845  0.86236021  0.92979798    -0.81000
H1357       H  0.13600114  0.84504838  0.75935532     0.33800
H1358       H  0.16584114  0.84421859  0.75797933     0.38300
H1359       H  0.17450261  0.85120809  0.94163086     0.33700
H1360       H  0.16298369  0.88655053  0.93107597     0.30400
H1361       H  0.12904286  0.95611534  0.84463552     0.33700
H1362       H  0.15042693  0.93182637  0.86047732     0.30400
H1363       H  0.06054018  0.89223867  0.97341090     0.38300
H1364       H  0.08391667  0.86943448  0.98314779     0.33800
C1365       C  0.42457236  0.92427675  0.58545001    -0.20000
C1366       C  0.40432993  0.93662930  0.60436159     0.36300
C1367       C  0.38722678  0.91591058  0.61925991    -0.25900
C1368       C  0.39014563  0.88322878  0.61703734     0.02700
C1369       C  0.41065084  0.87078238  0.59916044     0.27500
C1370       C  0.42751753  0.89147378  0.58352981    -0.25100
N1371       N  0.40108438  0.96969108  0.61106647    -0.82400
H1372       H  0.37174735  0.92543737  0.63368276     0.13300
C1373       C  0.37174985  0.86289625  0.63459591     0.02700
N1374       N  0.41481616  0.83750556  0.59581902    -0.81000
H1375       H  0.44298528  0.88176655  0.56924214     0.18100
C1376       C  0.35118333  0.85559783  0.61363400    -0.25900
C1377       C  0.33290454  0.83745715  0.62991981     0.36200
C1378       C  0.33521441  0.82631158  0.66786882    -0.19900
C1379       C  0.35608912  0.83321246  0.68854436    -0.25100
C1380       C  0.37433287  0.85162417  0.67233155     0.27500
H1381       H  0.34925445  0.86422405  0.58456923     0.13300
N1382       N  0.31215425  0.83011397  0.60765807    -0.82400
H1383       H  0.35788263  0.82496034  0.71778179     0.18200
N1384       N  0.39515376  0.85969022  0.69430094    -0.81000
H1385       H  0.30427190  0.85126569  0.59908274     0.33800
H1386       H  0.31761809  0.81813650  0.58308159     0.38300
H1387       H  0.39402099  0.85023010  0.72189624     0.33700
H1388       H  0.40982158  0.84906256  0.68125519     0.30400
H1389       H  0.43005633  0.83220807  0.61183967     0.33700
H1390       H  0.40089793  0.82426674  0.60741107     0.30400
H1391       H  0.41578519  0.98299246  0.60253389     0.38300
H1392       H  0.38637939  0.97695333  0.59493360     0.33800
O1393       O  0.96286748  0.43492914  0.42818993    -0.75400
O1394       O  0.93496973  0.46329538  0.46088558    -0.54300
C1395       C  0.94120848  0.44162057  0.43729057     0.78400
O1396       O  0.54449868  0.44207147  0.07608238    -0.60000
O1397       O  0.57184114  0.46881010  0.04010241    -0.53000
C1398       C  0.56595524  0.44845138  0.06571387     0.70400
O1399       O  0.96417219  0.43768098  0.07491076    -0.74500
O1400       O  0.93542173  0.46629615  0.04439498    -0.55100
C1401       C  0.94225890  0.44432110  0.06734577     0.76400
O1402       O  0.54314947  0.43546515  0.42876823    -0.59700
O1403       O  0.57095182  0.46691045  0.45764413    -0.52800
C1404       C  0.56476960  0.44354627  0.43642159     0.73000
Zr1405     Zr  0.00303706  0.45365553  0.44322025     2.54700
O1406       O  0.00335069  0.39640251  0.44598224    -0.80200
O1407       O  0.50349993  0.45488503  0.37472685    -0.93700
Zr1408     Zr  0.00379701  0.45809234  0.05981037     2.64700
O1409       O  0.00604068  0.40104302  0.06634554    -0.98600
O1410       O  0.50182523  0.46457699  0.12786878    -0.80700
O1411       O  0.98058855  0.45460954  0.50063554    -0.84000
O1412       O  0.52628514  0.45548637  0.50118548    -2.18700
O1413       O  0.54146368  0.06253465  0.41956340    -0.67400
O1414       O  0.57001548  0.03860265  0.45594113    -0.52000
C1415       C  0.56324289  0.05790993  0.42971166     0.71300
O1416       O  0.96316077  0.06939866  0.06738873    -0.60300
O1417       O  0.93533955  0.03800088  0.03896310    -0.52300
C1418       C  0.94142238  0.06143379  0.06022398     0.73200
O1419       O  0.54315773  0.06929868  0.06703295    -0.71700
O1420       O  0.57104730  0.03792440  0.03883177    -0.50400
C1421       C  0.56480568  0.06147750  0.05955925     0.74500
O1422       O  0.96101941  0.06299395  0.42562029    -0.67100
O1423       O  0.93373623  0.03451154  0.45938390    -0.54300
C1424       C  0.93948756  0.05589207  0.43490331     0.72900
Zr1425     Zr  0.50169308  0.04613899  0.43939773     2.77500
O1426       O  0.50129306  0.10323784  0.43336785    -0.97800
O1427       O  0.49965510  0.03909647  0.37033806    -0.78600
Zr1428     Zr  0.50311867  0.04953133  0.05417899     2.70100
O1429       O  0.50325476  0.10652382  0.06078456    -0.79900
O1430       O  0.50375517  0.04372591  0.12349568    -0.99000
Zr1431     Zr  0.95754331  0.00151156  0.99913240     2.21500
Zr1432     Zr  0.54861513  0.50306943  0.49760034     2.11100
O1433       O  0.52558213  0.04907063  0.99680515    -2.47600
O1434       O  0.98015346  0.04887216  0.99664587    -0.79700
O1435       O  0.52589589  0.50044091  0.43998234    -0.71900
O1436       O  0.98009052  0.00360202  0.05692527    -2.32800
O1437       O  0.97896072  0.99874770  0.44196655    -2.29000
O1438       O  0.52722209  0.50405470  0.05722589    -0.73600
H1439       H  0.53657259  0.43725464  0.00205242     0.78400
H1440       H  0.96978740  0.00409074  0.07903168     0.79500
H1441       H  0.53492254  0.06855649  0.49416158     0.81700
H1442       H  0.96831734  0.99765856  0.42023966     0.79300
H1443       H  0.01777203  0.47651467  0.13499277     0.42300
H1444       H  0.51834933  0.03140572  0.12888891     0.41300
H1445       H  0.00349451  0.11507831  0.03290676     0.41000
H1446       H  0.51435534  0.11065219  0.45022283     0.38900
H1447       H  0.51367494  0.02594852  0.36415171     0.42000
H1448       H  0.98996140  0.46838892  0.36614901     0.36800
H1449       H  0.00226197  0.39140568  0.47361736     0.42900
H1450       H  0.51787670  0.39299590  0.04843850     0.39400
H1451       H  0.50701955  0.10746479  0.40705780     0.44300
H1452       H  0.99792682  0.43308339  0.36594961     0.43000
H1453       H  0.01314047  0.39739431  0.09194119     0.43100
H1454       H  0.50746294  0.06509786  0.13307687     0.43500
O1455       O  0.79333106  0.31723067  0.17985756    -0.75400
O1456       O  0.82067035  0.28747347  0.21194219    -0.54300
C1457       C  0.81486327  0.30944634  0.18827694     0.78400
O1458       O  0.71214564  0.31252043  0.32712450    -0.60000
O1459       O  0.68434458  0.28751385  0.29034392    -0.53000
C1460       C  0.69056576  0.30746419  0.31618111     0.70400
O1461       O  0.79211513  0.31361086  0.32547396    -0.74500
O1462       O  0.82013765  0.28488190  0.29380974    -0.55100
C1463       C  0.81384101  0.30654530  0.31740234     0.76400
O1464       O  0.71339684  0.31875888  0.17785982    -0.59700
O1465       O  0.68477905  0.28918687  0.20719044    -0.52800
C1466       C  0.69152523  0.31143936  0.18463290     0.73000
Zr1467     Zr  0.75305443  0.30078240  0.19593505     2.54700
O1468       O  0.75420084  0.35802879  0.19904332    -0.80200
O1469       O  0.75251983  0.30033233  0.12624403    -0.93700
Zr1470     Zr  0.75207696  0.29538907  0.30973116     2.64700
O1471       O  0.75193585  0.35231957  0.31755244    -0.98600
O1472       O  0.75260686  0.28675921  0.37868685    -0.80700
O1473       O  0.77550185  0.29824991  0.25343595    -0.84000
O1474       O  0.72971382  0.29951708  0.25225834    -2.18700
O1475       O  0.71181900  0.19154432  0.17139108    -0.67400
O1476       O  0.68402452  0.21904822  0.20511277    -0.52000
C1477       C  0.69014938  0.19811127  0.18048307     0.71300
O1478       O  0.79034734  0.18337568  0.31846843    -0.60300
O1479       O  0.81927961  0.21343980  0.29082989    -0.52300
C1480       C  0.81230303  0.19025783  0.31183729     0.73200
O1481       O  0.71001848  0.18605880  0.31776181    -0.71700
O1482       O  0.68302177  0.21770463  0.28758580    -0.50400
C1483       C  0.68857948  0.19473257  0.30975767     0.74500
O1484       O  0.79219536  0.19078143  0.17208747    -0.67100
O1485       O  0.81992570  0.21629985  0.20844219    -0.54300
C1486       C  0.81387558  0.19626840  0.18253239     0.72900
Zr1487     Zr  0.75205217  0.20807785  0.18935554     2.77500
O1488       O  0.75270714  0.15102808  0.18296134    -0.97800
O1489       O  0.75119073  0.21700206  0.12047870    -0.78600
Zr1490     Zr  0.75069433  0.20285107  0.30325324     2.70100
O1491       O  0.74931118  0.14561320  0.30183243    -0.79900
O1492       O  0.75062281  0.20371715  0.37295635    -0.99000
Zr1493     Zr  0.79790875  0.25082973  0.25092969     2.21500
Zr1494     Zr  0.70627396  0.25288130  0.24817972     2.11100
O1495       O  0.72856381  0.20524197  0.24562041    -2.47600
O1496       O  0.77430452  0.20433077  0.24700093    -0.79700
O1497       O  0.72917101  0.25494368  0.19099754    -0.71900
O1498       O  0.77488115  0.24853041  0.30830270    -2.32800
O1499       O  0.77596745  0.25402130  0.19248359    -2.29000
O1500       O  0.72788284  0.24962591  0.30685096    -0.73600
H1501       H  0.71979697  0.31806964  0.25306958     0.78400
H1502       H  0.78499841  0.24732061  0.33067669     0.79500
H1503       H  0.71821337  0.18707493  0.24433207     0.81700
H1504       H  0.78653132  0.25478561  0.17070746     0.79300
H1505       H  0.73614612  0.28014685  0.38506200     0.42300
H1506       H  0.73519589  0.21344692  0.37986473     0.41300
H1507       H  0.75615808  0.13998418  0.27665456     0.41000
H1508       H  0.74072904  0.14335372  0.20157699     0.38900
H1509       H  0.73787928  0.23192932  0.11646505     0.42000
H1510       H  0.76527369  0.28546487  0.11888955     0.36800
H1511       H  0.74310476  0.36354222  0.21998775     0.42900
H1512       H  0.73835195  0.35986314  0.30191135     0.39400
H1513       H  0.74553355  0.14679485  0.15755985     0.44300
H1514       H  0.75871318  0.32127284  0.11874290     0.43000
H1515       H  0.74694330  0.35575381  0.34439918     0.43100
H1516       H  0.74887309  0.18135568  0.38046677     0.43500
C1517       C  0.58382403  0.08155574  0.07535454    -0.20000
C1518       C  0.58226041  0.11467943  0.07312640     0.36300
C1519       C  0.60041143  0.13314259  0.08923333    -0.25900
C1520       C  0.61998726  0.11912996  0.10723155     0.02700
C1521       C  0.62187140  0.08610319  0.10889387     0.27500
C1522       C  0.60374723  0.06754120  0.09266526    -0.25100
N1523       N  0.56242947  0.12938904  0.05410861    -0.82400
H1524       H  0.59928461  0.15858494  0.08798658     0.13300
C1525       C  0.63790869  0.13960395  0.12541140     0.02700
N1526       N  0.64188795  0.07167499  0.12768785    -0.81000
H1527       H  0.60490356  0.04211230  0.09415937     0.18100
C1528       C  0.63489395  0.14802978  0.16379644    -0.25900
C1529       C  0.65123913  0.16776593  0.18213726     0.36200
C1530       C  0.67116231  0.17948553  0.16162323    -0.19900
C1531       C  0.67390763  0.17123772  0.12288555    -0.25100
C1532       C  0.65733229  0.15151589  0.10448030     0.27500
H1533       H  0.61978296  0.13897240  0.17971597     0.13300
N1534       N  0.64767570  0.17418844  0.22197198    -0.82400
H1535       H  0.68904958  0.18020043  0.10698261     0.18200
N1536       N  0.65989335  0.14385298  0.06461346    -0.81000
H1537       H  0.64516651  0.19834636  0.22560079     0.33800
H1538       H  0.66283838  0.16708896  0.23710889     0.38300
H1539       H  0.67509078  0.15464935  0.05327489     0.33700
H1540       H  0.66262875  0.11959253  0.06257345     0.30400
H1541       H  0.64027096  0.04716051  0.12715542     0.33700
H1542       H  0.65715001  0.07724906  0.11193627     0.30400
H1543       H  0.56311355  0.12303612  0.02521566     0.38300
H1544       H  0.56403703  0.15389912  0.05504708     0.33800
C1545       C  0.66902171  0.17607157  0.32640344    -0.20000
C1546       C  0.64924394  0.19028601  0.34439040     0.38300
C1547       C  0.63195572  0.17106275  0.36186371    -0.25900
C1548       C  0.63369140  0.13821631  0.36011341     0.02700
C1549       C  0.65274327  0.12407687  0.34054451     0.27500
C1550       C  0.67044855  0.14316933  0.32435175    -0.25100
N1551       N  0.64714985  0.22398556  0.34587772    -0.82400
H1552       H  0.61699747  0.18161502  0.37661296     0.13300
C1553       C  0.61538750  0.11854869  0.37857485     0.02700
N1554       N  0.65391922  0.09039689  0.33714877    -0.81000
H1555       H  0.68536722  0.13236133  0.30976154     0.18100
C1556       C  0.59690613  0.10624641  0.35616678    -0.25900
C1557       C  0.57996490  0.08587846  0.37213118     0.36200
C1558       C  0.58162235  0.07751203  0.41113027    -0.19900
C1559       C  0.60024606  0.08986888  0.43353014    -0.25100
C1560       C  0.61712325  0.11052628  0.41761177     0.27500
H1561       H  0.59579281  0.11225529  0.32604383     0.13300
N1562       N  0.56142779  0.07318919  0.34845704    -0.82400
H1563       H  0.60130279  0.08395986  0.46368890     0.18200
N1564       N  0.63584844  0.12362717  0.44085583    -0.81000
H1565       H  0.55170178  0.09196062  0.33702426     0.33800
H1566       H  0.56939613  0.06113961  0.32577492     0.38300
H1567       H  0.63447091  0.11555615  0.46906554     0.33700
H1568       H  0.65207885  0.11526636  0.43034910     0.30400
H1569       H  0.66878116  0.08377716  0.32105671     0.33700
H1570       H  0.65639800  0.08112998  0.36460617     0.30400
H1571       H  0.64379608  0.23193541  0.31805114     0.38300
H1572       H  0.63228161  0.23046150  0.36203496     0.33800
C1573       C  0.58508830  0.42977698  0.08337580    -0.20000
C1574       C  0.58553046  0.42380643  0.12313197     0.36300
C1575       C  0.60320694  0.40403030  0.13826565    -0.25900
C1576       C  0.62024839  0.39026502  0.11436155     0.02700
C1577       C  0.61972101  0.39591850  0.07464177     0.27500
C1578       C  0.60215517  0.41584694  0.05951234    -0.25100
N1579       N  0.56816596  0.43799985  0.14788270    -0.82400
H1580       H  0.60380151  0.39936689  0.16877386     0.13300
C1581       C  0.63866821  0.37006298  0.13151106     0.02700
N1582       N  0.63653218  0.38065866  0.04982137    -0.81000
H1583       H  0.60135489  0.41987229  0.02887586     0.18100
C1584       C  0.63373115  0.33812768  0.13752505    -0.25900
C1585       C  0.65074442  0.31824196  0.15447258     0.36200
C1586       C  0.67303964  0.33083289  0.16569675    -0.19900
C1587       C  0.67787563  0.36289100  0.15921740    -0.25100
C1588       C  0.66081915  0.38271070  0.14251195     0.27500
H1589       H  0.61656135  0.32876028  0.12888145     0.13300
N1590       N  0.64558395  0.28536940  0.15978095    -0.82400
H1591       H  0.69485513  0.37270978  0.16805964     0.18200
N1592       N  0.66555637  0.41578779  0.13784988    -0.81000
H1593       H  0.62836806  0.28006701  0.15019117     0.33800
H1594       H  0.65730154  0.27266240  0.14246765     0.38300
H1595       H  0.68252838  0.42142432  0.14823637     0.33700
H1596       H  0.66575265  0.42080932  0.10857078     0.30400
H1597       H  0.63330299  0.38676195  0.02126436     0.33700
H1598       H  0.65353553  0.38913512  0.05644246     0.30400
H1599       H  0.57083338  0.46235000  0.14698064     0.38300
H1600       H  0.57093078  0.43103785  0.17627246     0.33800
C1601       C  0.83307964  0.17792161  0.16334310    -0.20000
C1602       C  0.85504856  0.17131408  0.18175268     0.36300
C1603       C  0.87231373  0.15323584  0.16268592    -0.25900
C1604       C  0.86822879  0.14148106  0.12575797     0.02700
C1605       C  0.84655191  0.14829091  0.10709996     0.27500
C1606       C  0.82913790  0.16616994  0.12616685    -0.25100
N1607       N  0.85963993  0.18232067  0.21999212    -0.82400
H1608       H  0.88895325  0.14772578  0.17699253     0.13300
C1609       C  0.88672014  0.12148296  0.10752085     0.02700
N1610       N  0.84242975  0.13723191  0.06876561    -0.81000
H1611       H  0.81248507  0.17125514  0.11168662     0.18100
C1612       C  0.88139618  0.09008103  0.09853228    -0.25900
C1613       C  0.89888944  0.06980691  0.08359956     0.36200
C1614       C  0.92224470  0.08135395  0.07704444    -0.19900
C1615       C  0.92739489  0.11295736  0.08599556    -0.25100
C1616       C  0.90984789  0.13315424  0.10072071     0.27500
H1617       H  0.86362125  0.08116627  0.10409897     0.13300
N1618       N  0.89309838  0.03743613  0.07601249    -0.82400
H1619       H  0.94510210  0.12221661  0.08075357     0.18200
N1620       N  0.91529267  0.16562949  0.10834141    -0.81000
H1621       H  0.87518288  0.03287205  0.08215527     0.33800
H1622       H  0.90312592  0.02361838  0.09484838     0.38300
H1623       H  0.93310709  0.17055117  0.10187501     0.33700
H1624       H  0.90494707  0.17930556  0.08977734     0.30400
H1625       H  0.82562335  0.14427159  0.05904457     0.33700
H1626       H  0.85493799  0.14814464  0.05095496     0.30400
H1627       H  0.84768715  0.17087406  0.23828119     0.38300
H1628       H  0.87673272  0.17585249  0.22898858     0.33800
C1629       C  0.83273268  0.32542041  0.33622561    -0.20000
C1630       C  0.85481901  0.31220652  0.34725748     0.36300
C1631       C  0.87216966  0.33149186  0.36457791    -0.25900
C1632       C  0.86779395  0.36350196  0.37103350     0.02700
C1633       C  0.84583589  0.37672670  0.36012672     0.27500
C1634       C  0.82845402  0.35750609  0.34307892    -0.25100
N1635       N  0.85941753  0.27929793  0.34134689    -0.82400
H1636       H  0.88916688  0.32160488  0.37310215     0.13300
C1637       C  0.88657057  0.38328889  0.38837457     0.02700
N1638       N  0.84154648  0.40977513  0.36557409    -0.81000
H1639       H  0.81161697  0.36778294  0.33441714     0.18100
C1640       C  0.90268394  0.39884847  0.36433537    -0.25900
C1641       C  0.92026372  0.41886715  0.37922721     0.36200
C1642       C  0.92209122  0.42272475  0.41947347    -0.19900
C1643       C  0.90569949  0.40732595  0.44348445    -0.25100
C1644       C  0.88794511  0.38752280  0.42828659     0.27500
H1645       H  0.90129333  0.39584225  0.33359225     0.13300
N1646       N  0.93537280  0.43531680  0.35256256    -0.82400
H1647       H  0.90708050  0.41029438  0.47423521     0.18200
N1648       N  0.87165919  0.37117985  0.45313630    -0.81000
H1649       H  0.92435416  0.44883680  0.33485617     0.33800
H1650       H  0.94651147  0.45142926  0.36623415     0.38300
H1651       H  0.87532502  0.37644467  0.48178451     0.33700
H1652       H  0.85450824  0.37959656  0.44755231     0.30400
H1653       H  0.82466043  0.41590543  0.35530014     0.33700
H1654       H  0.84140372  0.41416306  0.39499999     0.30400
H1655       H  0.84748532  0.26660155  0.35841689     0.38300
H1656       H  0.87654257  0.27344211  0.35080623     0.33800
C1657       C  0.92013684  0.07410476  0.41622114    -0.20000
C1658       C  0.92295516  0.08664301  0.37891000     0.36300
C1659       C  0.90497035  0.10562147  0.36323219    -0.25900
C1660       C  0.88419168  0.11225725  0.38378130     0.02700
C1661       C  0.88094686  0.09911624  0.42052302     0.27500
C1662       C  0.89894510  0.08007466  0.43636539    -0.25100
N1663       N  0.94396013  0.07986935  0.35688172    -0.82400
H1664       H  0.90707526  0.11522668  0.33466703     0.13300
C1665       C  0.86588313  0.13269529  0.36598076     0.02700
N1666       N  0.85956559  0.10555373  0.44173332    -0.81000
H1667       H  0.89669054  0.07058059  0.46495066     0.18100
C1668       C  0.84338067  0.12008907  0.35790763    -0.25900
C1669       C  0.82578505  0.13817665  0.33968695     0.36200
C1670       C  0.83069675  0.16992703  0.32988398    -0.19900
C1671       C  0.85339651  0.18242103  0.33783406    -0.25100
C1672       C  0.87101595  0.16413378  0.35588346     0.27500
H1673       H  0.83973236  0.09574369  0.36515593     0.13300
N1674       N  0.80318155  0.12408877  0.33034886    -0.82400
H1675       H  0.85730257  0.20667304  0.33051583     0.18200
N1676       N  0.89403531  0.17737646  0.36433634    -0.81000
H1677       H  0.80235430  0.10085853  0.34016791     0.33800
H1678       H  0.80196115  0.12308170  0.30049523     0.38300
H1679       H  0.89500627  0.20070520  0.35489430     0.33700
H1680       H  0.89591696  0.17790890  0.39411840     0.30400
H1681       H  0.85997001  0.09416994  0.46829325     0.33700
H1682       H  0.85919895  0.12970250  0.44737795     0.30400
H1683       H  0.94405077  0.05568992  0.35137950     0.38300
H1684       H  0.94330432  0.09113892  0.33026758     0.33800
C1685       C  0.58381493  0.42373981  0.42049253    -0.20000
C1686       C  0.58612368  0.39156569  0.43072309     0.36300
C1687       C  0.60372310  0.37333993  0.41308846    -0.25900
C1688       C  0.61927647  0.38646969  0.38610797     0.02700
C1689       C  0.61740113  0.41857734  0.37650675     0.27500
C1690       C  0.59969857  0.43700072  0.39397545    -0.25100
N1691       N  0.57134022  0.37668590  0.45916864    -0.82400
H1692       H  0.60536344  0.34868011  0.42063805     0.13300
C1693       C  0.63761987  0.36625596  0.36843201     0.02700
N1694       N  0.63336823  0.43216945  0.34887800    -0.81000
H1695       H  0.59800200  0.46164904  0.38644222     0.18100
C1696       C  0.63529561  0.35770007  0.32988545    -0.25900
C1697       C  0.65223494  0.33822341  0.31225066     0.36200
C1698       C  0.67177488  0.32693432  0.33389805    -0.19900
C1699       C  0.67413658  0.33586086  0.37244375    -0.25100
C1700       C  0.65722307  0.35543116  0.38992691     0.27500
H1701       H  0.62023747  0.36638519  0.31354028     0.13300
N1702       N  0.64994200  0.33050171  0.27232203    -0.82400
H1703       H  0.68923377  0.32752559  0.38897177     0.18200
N1704       N  0.65989370  0.36457264  0.42931965    -0.81000
H1705       H  0.63443787  0.34034153  0.26078870     0.33800
H1706       H  0.66424888  0.34095134  0.25791844     0.38300
H1707       H  0.67522553  0.35450374  0.44115527     0.33700
H1708       H  0.66245476  0.38894836  0.42992520     0.30400
H1709       H  0.62951815  0.45599858  0.34475775     0.33700
H1710       H  0.65059747  0.43109710  0.36027598     0.30400
H1711       H  0.55949435  0.39244465  0.47171797     0.38300
H1712       H  0.58251299  0.36902762  0.48128881     0.33800
C1713       C  0.92383099  0.42419601  0.08550167    -0.20000
C1714       C  0.90302796  0.43639499  0.10306358     0.36300
C1715       C  0.88606109  0.41555089  0.11812702    -0.25900
C1716       C  0.88956086  0.38291863  0.11740079     0.02700
C1717       C  0.91039134  0.37062196  0.10035549     0.27500
C1718       C  0.92719256  0.39141252  0.08469131    -0.25100
N1719       N  0.89904379  0.46948486  0.10839114    -0.82400
H1720       H  0.87023102  0.42499342  0.13163305     0.13300
C1721       C  0.87120801  0.36260286  0.13518576     0.02700
N1722       N  0.91490486  0.33738448  0.09765995    -0.81000
H1723       H  0.94295348  0.38175837  0.07120565     0.18100
C1724       C  0.84992554  0.35708741  0.11531837    -0.25900
C1725       C  0.83150463  0.33945954  0.13192972     0.36200
C1726       C  0.83427994  0.32721993  0.16930744    -0.19900
C1727       C  0.85579469  0.33244844  0.18898146    -0.25100
C1728       C  0.87431059  0.35008743  0.17227816     0.27500
H1729       H  0.84758258  0.36663271  0.08676025     0.13300
N1730       N  0.81018299  0.33360102  0.11042503    -0.82400
H1731       H  0.85799360  0.32327032  0.21773708     0.18200
N1732       N  0.89593835  0.35611256  0.19317928    -0.81000
H1733       H  0.80270667  0.35528667  0.10296629     0.33800
H1734       H  0.81487592  0.32196186  0.08520039     0.38300
H1735       H  0.89501481  0.34620723  0.22056349     0.33700
H1736       H  0.90979238  0.34459415  0.17903703     0.30400
H1737       H  0.93003253  0.33248732  0.11413950     0.33700
H1738       H  0.90096320  0.32402886  0.10898252     0.30400
H1739       H  0.91381117  0.48302280  0.10078203     0.38300
H1740       H  0.88478358  0.47601484  0.09081516     0.33800
O1741       O  0.96219280  0.43624213  0.92960382    -0.75400
O1742       O  0.93450692  0.46478284  0.96261287    -0.54300
C1743       C  0.94059188  0.44331003  0.93866187     0.78400
O1744       O  0.54464349  0.44437040  0.57750851    -0.60000
O1745       O  0.57182526  0.46996206  0.54003613    -0.53000
C1746       C  0.56609797  0.45053436  0.56678384     0.70400
O1747       O  0.96451610  0.43747228  0.57275445    -0.74500
O1748       O  0.93576608  0.46602554  0.54212032    -0.55100
C1749       C  0.94265581  0.44412601  0.56512148     0.76400
O1750       O  0.54307917  0.43550925  0.92969107    -0.59700
O1751       O  0.57100393  0.46757355  0.95730321    -0.52800
C1752       C  0.56474356  0.44391342  0.93661951     0.73000
Zr1753     Zr  0.00259436  0.45357776  0.94579974     2.54700
O1754       O  0.00203445  0.39630324  0.94852827    -0.80200
O1755       O  0.50345986  0.45894136  0.87511570    -0.93700
Zr1756     Zr  0.00396002  0.45750870  0.55709191     2.64700
O1757       O  0.00599626  0.40022849  0.55889159    -0.98600
O1758       O  0.50251223  0.46535769  0.62771020    -0.80700
O1759       O  0.98030357  0.45494758  0.00342678    -0.84000
O1760       O  0.52631689  0.45547055  0.00130186    -2.18700
O1761       O  0.54222317  0.06346222  0.92120487    -0.67400
O1762       O  0.57038648  0.03801608  0.95676790    -0.52000
C1763       C  0.56391731  0.05815002  0.93118998     0.71300
O1764       O  0.96224244  0.06795105  0.56813927    -0.60300
O1765       O  0.93454627  0.03683258  0.53931158    -0.52300
C1766       C  0.94047323  0.06003736  0.56090974     0.73200
O1767       O  0.54264438  0.07093250  0.56672424    -0.71700
O1768       O  0.57059194  0.03971258  0.53844070    -0.50400
C1769       C  0.56430970  0.06317519  0.55931185     0.74500
O1770       O  0.96275153  0.06440946  0.92409936    -0.67100
O1771       O  0.93507730  0.03617571  0.95741903    -0.54300
C1772       C  0.94113025  0.05748847  0.93305239     0.72900
Zr1773     Zr  0.50250108  0.04662455  0.94015489     2.77500
O1774       O  0.50297676  0.10395105  0.93760711    -0.97800
O1775       O  0.50051799  0.04108040  0.87086387    -0.78600
Zr1776     Zr  0.50281563  0.05094949  0.55320543     2.70100
O1777       O  0.50220326  0.10823911  0.55403640    -0.79900
O1778       O  0.50429701  0.04822207  0.62279130    -0.99000
Zr1779     Zr  0.95722284  0.00045032  0.50062897     2.21500
Zr1780     Zr  0.54895549  0.50306523  0.99854737     2.11100
O1781       O  0.52507248  0.04991536  0.49566266    -2.47600
O1782       O  0.97936379  0.04819682  0.49702035    -0.79700
O1783       O  0.52616722  0.50089523  0.94098760    -0.71900
O1784       O  0.98010198  0.00358342  0.55805677    -2.32800
O1785       O  0.97965090  0.00007376  0.94089645    -2.29000
O1786       O  0.52692039  0.50471556  0.55615726    -0.73600
H1787       H  0.53668059  0.43742958  0.50227411     0.78400
H1788       H  0.96995491  0.00409232  0.58034997     0.79500
H1789       H  0.53558086  0.06758745  0.99573997     0.81700
H1790       H  0.96911122  0.99943573  0.91901267     0.79300
H1791       H  0.01804921  0.47083822  0.63388314     0.42300
H1792       H  0.50874393  0.06977283  0.63090103     0.41300
H1793       H  0.00650613  0.11543020  0.53381729     0.41000
H1794       H  0.51558070  0.11039666  0.95589643     0.38900
H1795       H  0.51501734  0.02908359  0.86409708     0.42000
H1796       H  0.98881495  0.46809465  0.86904352     0.36800
H1797       H  0.00443173  0.39127449  0.97595612     0.42900
H1798       H  0.51926957  0.39448640  0.54667395     0.39400
H1799       H  0.50952832  0.10919843  0.91207601     0.44300
H1800       H  0.99818527  0.43342671  0.86829105     0.43000
H1801       H  0.01184064  0.39514551  0.58493418     0.43100
H1802       H  0.48748022  0.04584050  0.63083590     0.43500
O1803       O  0.79392546  0.31687326  0.67737547    -0.75400
O1804       O  0.82128984  0.28739029  0.70981630    -0.54300
C1805       C  0.81549080  0.30909351  0.68577108     0.78400
O1806       O  0.71196301  0.31434864  0.82476576    -0.60000
O1807       O  0.68407365  0.28828415  0.78923659    -0.53000
C1808       C  0.69031257  0.30871150  0.81445272     0.70400
O1809       O  0.79237687  0.31487319  0.82478545    -0.74500
O1810       O  0.82062048  0.28628180  0.79342139    -0.55100
C1811       C  0.81415451  0.30789597  0.81697196     0.76400
O1812       O  0.71368569  0.31883932  0.67713991    -0.59700
O1813       O  0.68520880  0.29022885  0.70817990    -0.52800
C1814       C  0.69181500  0.31221295  0.68515735     0.73000
Zr1815     Zr  0.75354236  0.30062931  0.69434509     2.54700
O1816       O  0.75488809  0.35785515  0.69586428    -0.80200
O1817       O  0.75355253  0.29835799  0.62466871    -0.93700
Zr1818     Zr  0.75228334  0.29726817  0.80855497     2.64700
O1819       O  0.75310488  0.35409864  0.81759449    -0.98600
O1820       O  0.75104366  0.28836160  0.87743359    -0.80700
O1821       O  0.77584014  0.29932430  0.75210148    -0.84000
O1822       O  0.73018861  0.30023582  0.75085212    -2.18700
O1823       O  0.71174186  0.19242824  0.67205886    -0.67400
O1824       O  0.68400741  0.21939847  0.70647221    -0.52000
C1825       C  0.69006365  0.19872066  0.68152268     0.71300
O1826       O  0.79141796  0.18544055  0.81939292    -0.60300
O1827       O  0.82016947  0.21513124  0.79072480    -0.52300
C1828       C  0.81333718  0.19218437  0.81220938     0.73200
O1829       O  0.71141663  0.18750359  0.81986425    -0.71700
O1830       O  0.68400570  0.21809274  0.78907500    -0.50400
C1831       C  0.68985921  0.19550867  0.81175580     0.74500
O1832       O  0.79232338  0.18960631  0.67501081    -0.67100
O1833       O  0.82038931  0.21549802  0.71055491    -0.54300
C1834       C  0.81398049  0.19492772  0.68553160     0.72900
Zr1835     Zr  0.75226876  0.20804130  0.69027972     2.77500
O1836       O  0.75184752  0.15084006  0.68630431    -0.97800
O1837       O  0.75320194  0.21425233  0.62092698    -0.78600
Zr1838     Zr  0.75167953  0.20486536  0.80426121     2.70100
O1839       O  0.75055739  0.14768646  0.80380297    -0.79900
O1840       O  0.75283704  0.20749590  0.87383432    -0.99000
Zr1841     Zr  0.79850684  0.25201773  0.75057697     2.21500
Zr1842     Zr  0.70667451  0.25349018  0.74844288     2.11100
O1843       O  0.72913788  0.20604050  0.74686349    -2.47600
O1844       O  0.77485331  0.20557948  0.74771216    -0.79700
O1845       O  0.72934713  0.25485787  0.69077148    -0.71900
O1846       O  0.77555239  0.25078541  0.80803353    -2.32800
O1847       O  0.77643117  0.25386973  0.69212410    -2.29000
O1848       O  0.72837570  0.25129103  0.80706172    -0.73600
H1849       H  0.72030692  0.31883024  0.75129770     0.78400
H1850       H  0.78569536  0.24998172  0.83040225     0.79500
H1851       H  0.71881816  0.18782682  0.74604219     0.81700
H1852       H  0.78698363  0.25415730  0.67031503     0.79300
H1853       H  0.76266013  0.30354614  0.88818543     0.42300
H1854       H  0.73645926  0.21347864  0.88138516     0.41300
H1855       H  0.75867562  0.14184386  0.77969741     0.41000
H1856       H  0.74033138  0.14404036  0.70612859     0.38900
H1857       H  0.77000461  0.21936295  0.61484161     0.42000
H1858       H  0.76856769  0.28750323  0.61791160     0.36800
H1859       H  0.75221767  0.36323474  0.72309253     0.42900
H1860       H  0.73950896  0.36220131  0.80241250     0.39400
H1861       H  0.74386551  0.14607060  0.66167618     0.44300
H1862       H  0.75609995  0.32041650  0.61646615     0.43000
H1863       H  0.74836328  0.35725376  0.84461246     0.43100
H1864       H  0.75442940  0.18530675  0.88211665     0.43500
C1865       C  0.58331293  0.08313936  0.57550344    -0.20000
C1866       C  0.58140118  0.11627489  0.57477016     0.36300
C1867       C  0.59949605  0.13459585  0.59130029    -0.25900
C1868       C  0.61944319  0.12044063  0.60804625     0.02700
C1869       C  0.62158625  0.08742721  0.60851331     0.27500
C1870       C  0.60353499  0.06901438  0.59181128    -0.25100
N1871       N  0.56135821  0.13116118  0.55655471    -0.82400
H1872       H  0.59810574  0.16003375  0.59115101     0.13300
C1873       C  0.63749269  0.14069060  0.62625983     0.02700
N1874       N  0.64166108  0.07282568  0.62696790    -0.81000
H1875       H  0.60495886  0.04358612  0.59226988     0.18100
C1876       C  0.63435641  0.14939156  0.66451150    -0.25900
C1877       C  0.65083251  0.16886643  0.68296054     0.36200
C1878       C  0.67099053  0.18016979  0.66263511    -0.19900
C1879       C  0.67386898  0.17158778  0.62402705    -0.25100
C1880       C  0.65726093  0.15193301  0.60559183     0.27500
H1881       H  0.61904564  0.14073111  0.68026687     0.13300
N1882       N  0.64706257  0.17554634  0.72267887    -0.82400
H1883       H  0.68919105  0.18015745  0.60825836     0.18200
N1884       N  0.66016927  0.14365573  0.56596191    -0.81000
H1885       H  0.64459016  0.19973406  0.72604003     0.33800
H1886       H  0.66210375  0.16845096  0.73812736     0.38300
H1887       H  0.67553622  0.15413855  0.55477733     0.33700
H1888       H  0.66282665  0.11935990  0.56447577     0.30400
H1889       H  0.64014205  0.04831709  0.62587124     0.33700
H1890       H  0.65693725  0.07873234  0.61145210     0.30400
H1891       H  0.56201138  0.12562335  0.52740903     0.38300
H1892       H  0.56274398  0.15565231  0.55846714     0.33800
C1893       C  0.67064337  0.17632432  0.82892012    -0.20000
C1894       C  0.64996243  0.18988950  0.84494227     0.38300
C1895       C  0.63300069  0.17026850  0.86266852    -0.25900
C1896       C  0.63600694  0.13753891  0.86341774     0.02700
C1897       C  0.65612100  0.12391304  0.84616332     0.27500
C1898       C  0.67342523  0.14348548  0.82958843    -0.25100
N1899       N  0.64656470  0.22341205  0.84418009    -0.82400
H1900       H  0.61726062  0.18042242  0.87562730     0.13300
C1901       C  0.61758865  0.11754421  0.88128095     0.02700
N1902       N  0.65861747  0.09025328  0.84490827    -0.81000
H1903       H  0.68906480  0.13303560  0.81665029     0.18100
C1904       C  0.59810118  0.10779042  0.85918772    -0.25900
C1905       C  0.58045054  0.08826776  0.87481865     0.36200
C1906       C  0.58259263  0.07768309  0.91301766    -0.19900
C1907       C  0.60214147  0.08765820  0.93513767    -0.25100
C1908       C  0.61955887  0.10782149  0.91973729     0.27500
H1909       H  0.59658794  0.11542464  0.82965549     0.13300
N1910       N  0.56052461  0.07902566  0.85167508    -0.82400
H1911       H  0.60348971  0.08038442  0.96482008     0.18200
N1912       N  0.63885468  0.11912038  0.94317763    -0.81000
H1913       H  0.55171399  0.09940635  0.84265873     0.33800
H1914       H  0.56702018  0.06753112  0.82741239     0.38300
H1915       H  0.63738094  0.11033586  0.97105886     0.33700
H1916       H  0.65474017  0.11018406  0.93209803     0.30400
H1917       H  0.67405446  0.08399647  0.83004095     0.33700
H1918       H  0.66084485  0.08218821  0.87295363     0.30400
H1919       H  0.64327833  0.22989846  0.81577910     0.38300
H1920       H  0.63126249  0.22956320  0.85945889     0.33800
C1921       C  0.58543486  0.43261030  0.58532064    -0.20000
C1922       C  0.58579625  0.42735496  0.62524022     0.36300
C1923       C  0.60358908  0.40805039  0.64113411    -0.25900
C1924       C  0.62064152  0.39361364  0.61777228     0.02700
C1925       C  0.61994229  0.39821150  0.57780817     0.27500
C1926       C  0.60259676  0.41820545  0.56205421    -0.25100
N1927       N  0.56806324  0.44150695  0.64934243    -0.82400
H1928       H  0.60408669  0.40398242  0.67176702     0.13300
C1929       C  0.63878216  0.37301808  0.63543625     0.02700
N1930       N  0.63598354  0.38127122  0.55327867    -0.81000
H1931       H  0.60179939  0.42148647  0.53128763     0.18100
C1932       C  0.63270502  0.34196464  0.64486406    -0.25900
C1933       C  0.64960261  0.32142700  0.66104617     0.36200
C1934       C  0.67315327  0.33228875  0.66750119    -0.19900
C1935       C  0.67896385  0.36362875  0.65835735    -0.25100
C1936       C  0.66191641  0.38425520  0.64307654     0.27500
H1937       H  0.61471639  0.33374835  0.63939050     0.13300
N1938       N  0.64293316  0.28968096  0.67060266    -0.82400
H1939       H  0.69674625  0.37241172  0.66421378     0.18200
N1940       N  0.66767926  0.41688612  0.63697323    -0.81000
H1941       H  0.62490218  0.28574624  0.66459665     0.33800
H1942       H  0.65259219  0.27460492  0.65283662     0.38300
H1943       H  0.68525536  0.42155052  0.64526928     0.33700
H1944       H  0.66673812  0.42152132  0.60765507     0.30400
H1945       H  0.63244221  0.38633909  0.52451790     0.33700
H1946       H  0.65329341  0.38918519  0.55868200     0.30400
H1947       H  0.57034664  0.46590386  0.64786102     0.38300
H1948       H  0.57074263  0.43508197  0.67793603     0.33800
C1949       C  0.83274733  0.17579592  0.66725003    -0.20000
C1950       C  0.85128999  0.16200741  0.68885720     0.36300
C1951       C  0.86854391  0.14368904  0.67016712    -0.25900
C1952       C  0.86770879  0.13897248  0.63038536     0.02700
C1953       C  0.84912596  0.15273133  0.60883727     0.27500
C1954       C  0.83168816  0.17068233  0.62759133    -0.25100
N1955       N  0.85223163  0.16606033  0.72970785    -0.82400
H1956       H  0.88258430  0.13266563  0.68675366     0.13300
C1957       C  0.88628871  0.11922950  0.61193798     0.02700
N1958       N  0.84819359  0.14871152  0.56799327    -0.81000
H1959       H  0.81741315  0.18126258  0.61108191     0.18100
C1960       C  0.87947479  0.09297186  0.59024258    -0.25900
C1961       C  0.89650998  0.07320727  0.57317700     0.36200
C1962       C  0.92118806  0.07953860  0.57854096    -0.19900
C1963       C  0.92778602  0.10604484  0.60039278    -0.25100
C1964       C  0.91069401  0.12612588  0.61650291     0.27500
H1965       H  0.86067747  0.08768661  0.58691437     0.13300
N1966       N  0.88863255  0.04707944  0.55028518    -0.82400
H1967       H  0.94645425  0.11166262  0.60448161     0.18200
N1968       N  0.91802655  0.15385584  0.63697760    -0.81000
H1969       H  0.87006701  0.04705438  0.54746214     0.33800
H1970       H  0.89298187  0.02653158  0.56512194     0.38300
H1971       H  0.93661560  0.15561334  0.63776848     0.33700
H1972       H  0.91190701  0.17338460  0.62161232     0.30400
H1973       H  0.83334756  0.16020186  0.55648081     0.33700
H1974       H  0.86324574  0.15968681  0.55640646     0.30400
H1975       H  0.83720077  0.15504689  0.74132278     0.38300
H1976       H  0.86707918  0.15458868  0.74124590     0.33800
C1977       C  0.83283083  0.32702758  0.83596810    -0.20000
C1978       C  0.85510387  0.31433297  0.84695425     0.36300
C1979       C  0.87211549  0.33398448  0.86456139    -0.25900
C1980       C  0.86726554  0.36585987  0.87121081     0.02700
C1981       C  0.84511433  0.37852730  0.86039241     0.27500
C1982       C  0.82808001  0.35896599  0.84305828    -0.25100
N1983       N  0.86028071  0.28163428  0.84058658    -0.82400
H1984       H  0.88925905  0.32451873  0.87303515     0.13300
C1985       C  0.88574237  0.38604176  0.88877782     0.02700
N1986       N  0.84019756  0.41132506  0.86654319    -0.81000
H1987       H  0.81110752  0.36887508  0.83443769     0.18100
C1988       C  0.90020895  0.40452969  0.86503576    -0.25900
C1989       C  0.91790192  0.42417743  0.88036961     0.36200
C1990       C  0.92132742  0.42494684  0.92059273    -0.19900
C1991       C  0.90643796  0.40690899  0.94433888    -0.25100
C1992       C  0.88868277  0.38732985  0.92878203     0.27500
H1993       H  0.89763349  0.40377922  0.83427881     0.13300
N1994       N  0.93162446  0.44319354  0.85431553    -0.82400
H1995       H  0.90902079  0.40765228  0.97509716     0.18200
N1996       N  0.87387071  0.36841595  0.95329266    -0.81000
H1997       H  0.91975955  0.45813383  0.84005542     0.33800
H1998       H  0.94353421  0.45788931  0.86870000     0.38300
H1999       H  0.87858393  0.37170994  0.98199155     0.33700
H2000       H  0.85635208  0.37642488  0.95037119     0.30400
H2001       H  0.82321820  0.41706440  0.85632232     0.33700
H2002       H  0.83993439  0.41517933  0.89609018     0.30400
H2003       H  0.84854731  0.26841284  0.85741907     0.38300
H2004       H  0.87748983  0.27620820  0.85004184     0.33800
C2005       C  0.92192333  0.07593908  0.91448302    -0.20000
C2006       C  0.92488209  0.08927141  0.87762963     0.36300
C2007       C  0.90689094  0.10850624  0.86239575    -0.25900
C2008       C  0.88592018  0.11439857  0.88285159     0.02700
C2009       C  0.88259956  0.10044395  0.91912490     0.27500
C2010       C  0.90061921  0.08128767  0.93453715    -0.25100
N2011       N  0.94595347  0.08294032  0.85556592    -0.82400
H2012       H  0.90908082  0.11874869  0.83417792     0.13300
C2013       C  0.86742602  0.13475768  0.86537089     0.02700
N2014       N  0.86110566  0.10616217  0.94034112    -0.81000
H2015       H  0.89826203  0.07117724  0.96278902     0.18100
C2016       C  0.84499083  0.12195122  0.85716804    -0.25900
C2017       C  0.82721883  0.14002546  0.83933459     0.36200
C2018       C  0.83188568  0.17192100  0.82999966    -0.19900
C2019       C  0.85453378  0.18457909  0.83794999    -0.25100
C2020       C  0.87230743  0.16635064  0.85571203     0.27500
H2021       H  0.84152676  0.09748349  0.86402992     0.13300
N2022       N  0.80468716  0.12579853  0.82987995    -0.82400
H2023       H  0.85826645  0.20892694  0.83089215     0.18200
N2024       N  0.89523350  0.17980874  0.86431658    -0.81000
H2025       H  0.80404795  0.10243922  0.83926987     0.33800
H2026       H  0.80340557  0.12515077  0.80001740     0.38300
H2027       H  0.89603395  0.20322767  0.85517615     0.33700
H2028       H  0.89712497  0.18009893  0.89410339     0.30400
H2029       H  0.86143210  0.09409206  0.96645435     0.33700
H2030       H  0.86062456  0.13014523  0.94691172     0.30400
H2031       H  0.94602314  0.05889070  0.84927030     0.38300
H2032       H  0.94538293  0.09479233  0.82932246     0.33800
C2033       C  0.58380147  0.42419007  0.92051078    -0.20000
C2034       C  0.58652248  0.39218945  0.93126461     0.36300
C2035       C  0.60413610  0.37405117  0.91358259    -0.25900
C2036       C  0.61948382  0.38715956  0.88630632     0.02700
C2037       C  0.61747578  0.41924829  0.87662301     0.27500
C2038       C  0.59951583  0.43747926  0.89373014    -0.25100
N2039       N  0.57215730  0.37739172  0.96030475    -0.82400
H2040       H  0.60595499  0.34946028  0.92135506     0.13300
C2041       C  0.63760603  0.36685626  0.86819401     0.02700
N2042       N  0.63371984  0.43308456  0.84958750    -0.81000
H2043       H  0.59761201  0.46204987  0.88594957     0.18100
C2044       C  0.63543586  0.35947190  0.82924536    -0.25900
C2045       C  0.65224896  0.34013502  0.81106152     0.36200
C2046       C  0.67145887  0.32777272  0.83257197    -0.19900
C2047       C  0.67348722  0.33514816  0.87161616    -0.25100
C2048       C  0.65674871  0.35461674  0.88965299     0.27500
H2049       H  0.62064036  0.36903582  0.81300410     0.13300
N2050       N  0.65023543  0.33374175  0.77075344    -0.82400
H2051       H  0.68826521  0.32576915  0.88805668     0.18200
N2052       N  0.65918676  0.36229077  0.92954807    -0.81000
H2053       H  0.63502979  0.34444001  0.75931613     0.33800
H2054       H  0.66486414  0.34419357  0.75721656     0.38300
H2055       H  0.67418253  0.35127695  0.94124745     0.33700
H2056       H  0.66222055  0.38652358  0.93148320     0.30400
H2057       H  0.62981824  0.45690533  0.84551815     0.33700
H2058       H  0.65080131  0.43211297  0.86157495     0.30400
H2059       H  0.56032289  0.39312221  0.97292699     0.38300
H2060       H  0.58361749  0.37011171  0.98223752     0.33800
C2061       C  0.92436775  0.42401200  0.58323276    -0.20000
C2062       C  0.90447108  0.43622782  0.60317171     0.36300
C2063       C  0.88759377  0.41539548  0.61845323    -0.25900
C2064       C  0.89033656  0.38273438  0.61540279     0.02700
C2065       C  0.91044281  0.37042195  0.59623202     0.27500
C2066       C  0.92710805  0.39124167  0.58032961    -0.25100
N2067       N  0.90133816  0.46922701  0.61042721    -0.82400
H2068       H  0.87238057  0.42480943  0.63369240     0.13300
C2069       C  0.87195160  0.36238430  0.63299363     0.02700
N2070       N  0.91440691  0.33719125  0.59185381    -0.81000
H2071       H  0.94229997  0.38166905  0.56516460     0.18100
C2072       C  0.85116920  0.35562720  0.61230989    -0.25900
C2073       C  0.83272936  0.33785794  0.62876868     0.36200
C2074       C  0.83499357  0.32676137  0.66674957    -0.19900
C2075       C  0.85601459  0.33330395  0.68723508    -0.25100
C2076       C  0.87451726  0.35109661  0.67072576     0.27500
H2077       H  0.84921861  0.36433851  0.58328476     0.13300
N2078       N  0.81193065  0.33067129  0.60655887    -0.82400
H2079       H  0.85779832  0.32507365  0.71648186     0.18200
N2080       N  0.89562627  0.35843551  0.69235554    -0.81000
H2081       H  0.80420198  0.35187513  0.59781816     0.33800
H2082       H  0.81732506  0.31851640  0.58206772     0.38300
H2083       H  0.89445899  0.34906657  0.71999453     0.33700
H2084       H  0.90997297  0.34723417  0.67909358     0.30400
H2085       H  0.93004499  0.33157857  0.60668177     0.33700
H2086       H  0.90077060  0.32388758  0.60417145     0.30400
H2087       H  0.91583574  0.48261897  0.60124662     0.38300
H2088       H  0.88630398  0.47656805  0.59515054     0.33800
O2089       O  0.96353209  0.93461397  0.42901933    -0.75400
O2090       O  0.93559575  0.96242994  0.46236916    -0.54300
C2091       C  0.94190470  0.94104506  0.43846226     0.78400
O2092       O  0.54345593  0.94231155  0.07760889    -0.60000
O2093       O  0.57096503  0.96781078  0.04058728    -0.53000
C2094       C  0.56497684  0.94824412  0.06701426     0.70400
O2095       O  0.96412825  0.93781457  0.07334253    -0.74500
O2096       O  0.93586808  0.96610801  0.04102536    -0.55100
C2097       C  0.94241884  0.94444092  0.06450471     0.76400
O2098       O  0.54315560  0.93606090  0.42923704    -0.59700
O2099       O  0.57104050  0.96691441  0.45889569    -0.52800
C2100       C  0.56479371  0.94374874  0.43740584     0.73000
Zr2101     Zr  0.00344995  0.95330868  0.44501858     2.54700
O2102       O  0.00332541  0.89602048  0.44636403    -0.80200
O2103       O  0.50313178  0.95520412  0.37484207    -0.93700
Zr2104     Zr  0.00384485  0.95758734  0.05792914     2.64700
O2105       O  0.00563572  0.90038199  0.06253662    -0.98600
O2106       O  0.50040820  0.96532133  0.12671644    -0.80700
O2107       O  0.98107943  0.95428150  0.50264351    -0.84000
O2108       O  0.52621637  0.95576888  0.50126453    -2.18700
O2109       O  0.54129775  0.56377059  0.42049310    -0.67400
O2110       O  0.56989441  0.53841328  0.45525364    -0.52000
C2111       C  0.56308455  0.55851664  0.42994791     0.71300
O2112       O  0.96276245  0.56992601  0.06857005    -0.60300
O2113       O  0.93484381  0.53899277  0.04001485    -0.52300
C2114       C  0.94095115  0.56249927  0.06103002     0.73200
O2115       O  0.54323183  0.57042190  0.06690762    -0.71700
O2116       O  0.57129286  0.53964834  0.03810729    -0.50400
C2117       C  0.56491286  0.56311379  0.05892864     0.74500
O2118       O  0.96138383  0.56318568  0.42382174    -0.67100
O2119       O  0.93392353  0.53467267  0.45711333    -0.54300
C2120       C  0.93981450  0.55601929  0.43272748     0.72900
Zr2121     Zr  0.50173779  0.54624041  0.43934216     2.77500
O2122       O  0.50113298  0.60336235  0.43258141    -0.97800
O2123       O  0.49960059  0.53907523  0.37028065    -0.78600
Zr2124     Zr  0.50327731  0.55001418  0.05493042     2.70100
O2125       O  0.50296939  0.60719844  0.05854592    -0.79900
O2126       O  0.50495833  0.54528790  0.12435240    -0.99000
Zr2127     Zr  0.95687503  0.50154987  0.00164995     2.21500
Zr2128     Zr  0.54861239  0.00334293  0.49817336     2.11100
O2129       O  0.52538043  0.54956021  0.99717345    -2.47600
O2130       O  0.97950685  0.54883813  0.99828989    -0.79700
O2131       O  0.52587611  0.00044660  0.44050853    -0.71900
O2132       O  0.97980859  0.50396743  0.05915573    -2.32800
O2133       O  0.97889127  0.49940929  0.44030383    -2.29000
O2134       O  0.52671947  0.00334854  0.05671896    -0.73600
H2135       H  0.53608034  0.93655334  0.00204358     0.78400
H2136       H  0.96964647  0.50452538  0.08143229     0.79500
H2137       H  0.53486955  0.56834221  0.49429906     0.81700
H2138       H  0.96828945  0.49850345  0.41850904     0.79300
H2139       H  0.01625376  0.97680146  0.13353876     0.42300
H2140       H  0.52103598  0.53674471  0.12973792     0.41300
H2141       H  0.00159886  0.61499207  0.03211610     0.41000
H2142       H  0.51389336  0.61109485  0.44981962     0.38900
H2143       H  0.51566042  0.53159300  0.36297688     0.42000
H2144       H  0.99115092  0.96828453  0.36771007     0.36800
H2145       H  0.00866222  0.89055109  0.47257560     0.42900
H2146       H  0.51779668  0.89307313  0.04711035     0.39400
H2147       H  0.50717023  0.60750620  0.40642753     0.44300
H2148       H  0.00073517  0.93370536  0.36708667     0.43000
H2149       H  0.01095736  0.89606533  0.08906997     0.43100
H2150       H  0.50567453  0.56728906  0.13356333     0.43500
O2151       O  0.79330311  0.81838352  0.18008893    -0.75400
O2152       O  0.82094699  0.78846325  0.21112376    -0.54300
C2153       C  0.81493476  0.81055295  0.18765149     0.78400
O2154       O  0.71279701  0.81406646  0.32772842    -0.60000
O2155       O  0.68474067  0.78946440  0.29093860    -0.53000
C2156       C  0.69116771  0.80929294  0.31680034     0.70400
O2157       O  0.79264654  0.81313850  0.32769592    -0.74500
O2158       O  0.82059111  0.78526011  0.29477626    -0.55100
C2159       C  0.81433518  0.80626815  0.31928918     0.76400
O2160       O  0.71339757  0.82068447  0.17975297    -0.59700
O2161       O  0.68496127  0.79064579  0.20888009    -0.52800
C2162       C  0.69156468  0.81319522  0.18668028     0.73000
Zr2163     Zr  0.75312294  0.80217030  0.19703138     2.54700
O2164       O  0.75444538  0.85917942  0.20354448    -0.80200
O2165       O  0.75251574  0.80461233  0.12736367    -0.93700
Zr2166     Zr  0.75261890  0.79603277  0.31077439     2.64700
O2167       O  0.75464387  0.85242888  0.32266400    -0.98600
O2168       O  0.75274685  0.78490974  0.37913955    -0.80700
O2169       O  0.77588483  0.79940049  0.25421897    -0.84000
O2170       O  0.73006830  0.80071382  0.25354192    -2.18700
O2171       O  0.71163951  0.69418032  0.17060702    -0.67400
O2172       O  0.68412042  0.72061087  0.20612012    -0.52000
C2173       C  0.69002622  0.70044829  0.18041666     0.71300
O2174       O  0.79080809  0.68459915  0.31906056    -0.60300
O2175       O  0.81967925  0.71403159  0.29014235    -0.52300
C2176       C  0.81273297  0.69117034  0.31170624     0.73200
O2177       O  0.71036406  0.68687217  0.31861672    -0.71700
O2178       O  0.68329670  0.71864757  0.28884272    -0.50400
C2179       C  0.68887938  0.69552139  0.31083706     0.74500
O2180       O  0.79221080  0.69288172  0.17105495    -0.67100
O2181       O  0.82002426  0.71764598  0.20825404    -0.54300
C2182       C  0.81385395  0.69826557  0.18174213     0.72900
Zr2183     Zr  0.75203995  0.70906126  0.19003261     2.77500
O2184       O  0.75183071  0.65173315  0.18743258    -0.97800
O2185       O  0.75204703  0.71400528  0.12062838    -0.78600
Zr2186     Zr  0.75104627  0.70364959  0.30370318     2.70100
O2187       O  0.74989090  0.64648310  0.29977384    -0.79900
O2188       O  0.75151615  0.70342253  0.37350197    -0.99000
Zr2189     Zr  0.79824178  0.75196883  0.25098809     2.21500
Zr2190     Zr  0.70650753  0.75412117  0.24937397     2.11100
O2191       O  0.72862164  0.70639194  0.24636583    -2.47600
O2192       O  0.77462786  0.70534067  0.24734840    -0.79700
O2193       O  0.72932443  0.75617539  0.19198498    -0.71900
O2194       O  0.77535214  0.74924742  0.30847474    -2.32800
O2195       O  0.77579398  0.75522090  0.19297302    -2.29000
O2196       O  0.72825214  0.75045300  0.30792278    -0.73600
H2197       H  0.72029544  0.81939676  0.25451233     0.78400
H2198       H  0.78554931  0.74790224  0.33074119     0.79500
H2199       H  0.71812257  0.68838359  0.24494535     0.81700
H2200       H  0.78616845  0.75608397  0.17096805     0.79300
H2201       H  0.74858342  0.80520462  0.39126858     0.42300
H2202       H  0.73454013  0.70400814  0.38118317     0.41300
H2203       H  0.74021488  0.64195963  0.27668773     0.41000
H2204       H  0.73737171  0.64525787  0.20165336     0.38900
H2205       H  0.74026886  0.73075915  0.11520955     0.42000
H2206       H  0.76680224  0.79277085  0.11916135     0.36800
H2207       H  0.76112041  0.86276411  0.22944374     0.42900
H2208       H  0.74234119  0.86170963  0.30574109     0.39400
H2209       H  0.74818098  0.64671634  0.16037061     0.44300
H2210       H  0.75624806  0.82683908  0.12126501     0.43000
H2211       H  0.74833963  0.85517091  0.34890551     0.43100
H2212       H  0.75688673  0.68199118  0.38050257     0.43500
C2213       C  0.58372397  0.58378040  0.07432854    -0.20000
C2214       C  0.58192079  0.61682532  0.07099338     0.36300
C2215       C  0.59978837  0.63594999  0.08693706    -0.25900
C2216       C  0.61919018  0.62264020  0.10624631     0.02700
C2217       C  0.62103689  0.58968465  0.10963965     0.27500
C2218       C  0.60340132  0.57047656  0.09309043    -0.25100
N2219       N  0.56209109  0.63076083  0.05111988    -0.82400
H2220       H  0.59852787  0.66133161  0.08465279     0.13300
C2221       C  0.63693707  0.64361332  0.12427979     0.02700
N2222       N  0.64045321  0.57600574  0.13075128    -0.81000
H2223       H  0.60463539  0.54511752  0.09573536     0.18100
C2224       C  0.63402461  0.65182370  0.16274988    -0.25900
C2225       C  0.65070610  0.67083815  0.18147591     0.36200
C2226       C  0.67079341  0.68238953  0.16117558    -0.19900
C2227       C  0.67345387  0.67436928  0.12233618    -0.25100
C2228       C  0.65669420  0.65502295  0.10367770     0.27500
H2229       H  0.61885113  0.64285202  0.17858020     0.13300
N2230       N  0.64735784  0.67648807  0.22153785    -0.82400
H2231       H  0.68877755  0.68299794  0.10661213     0.18200
N2232       N  0.65959192  0.64691400  0.06400708    -0.81000
H2233       H  0.64516161  0.70060470  0.22596458     0.33800
H2234       H  0.66246471  0.66871463  0.23633092     0.38300
H2235       H  0.67506635  0.65722958  0.05297117     0.33700
H2236       H  0.66204020  0.62256977  0.06243012     0.30400
H2237       H  0.63892496  0.55148214  0.13126910     0.33700
H2238       H  0.65620054  0.58121217  0.11608314     0.30400
H2239       H  0.56310759  0.62388852  0.02243140     0.38300
H2240       H  0.56340182  0.65530879  0.05144694     0.33800
C2241       C  0.66935026  0.67664067  0.32760067    -0.20000
C2242       C  0.64890262  0.69064322  0.34389711     0.38300
C2243       C  0.63155119  0.67133742  0.36111196    -0.25900
C2244       C  0.63400239  0.63854843  0.36121775     0.02700
C2245       C  0.65388783  0.62450216  0.34381184     0.27500
C2246       C  0.67153083  0.64371993  0.32756287    -0.25100
N2247       N  0.64620242  0.72428336  0.34413125    -0.82400
H2248       H  0.61601992  0.68179873  0.37435964     0.13300
C2249       C  0.61558229  0.61887993  0.37942655     0.02700
N2250       N  0.65588580  0.59078430  0.34237033    -0.81000
H2251       H  0.68699485  0.63295789  0.31446663     0.18100
C2252       C  0.59655999  0.60782633  0.35718634    -0.25900
C2253       C  0.57944881  0.58757891  0.37294511     0.36200
C2254       C  0.58145805  0.57817521  0.41155774    -0.19900
C2255       C  0.60053777  0.58937860  0.43379828    -0.25100
C2256       C  0.61759661  0.60985805  0.41811833     0.27500
H2257       H  0.59518050  0.61465387  0.32735004     0.13300
N2258       N  0.56041875  0.57598835  0.34942627    -0.82400
H2259       H  0.60183383  0.58269205  0.46369346     0.18200
N2260       N  0.63670138  0.62194930  0.44137488    -0.81000
H2261       H  0.55087895  0.59528667  0.33893479     0.33800
H2262       H  0.56790070  0.56421798  0.32610798     0.38300
H2263       H  0.63536876  0.61341444  0.46938970     0.33700
H2264       H  0.65272145  0.61331566  0.43041130     0.30400
H2265       H  0.67131210  0.58419185  0.32769539     0.33700
H2266       H  0.65782700  0.58256429  0.37041485     0.30400
H2267       H  0.64306794  0.73146919  0.31593881     0.38300
H2268       H  0.63102035  0.73067739  0.35957038     0.33800
C2269       C  0.58418922  0.92999293  0.08517944    -0.20000
C2270       C  0.58510886  0.92529656  0.12515792     0.36300
C2271       C  0.60291109  0.90586918  0.14064299    -0.25900
C2272       C  0.61965999  0.89131943  0.11688699     0.02700
C2273       C  0.61890438  0.89615414  0.07702565     0.27500
C2274       C  0.60119510  0.91565943  0.06154330    -0.25100
N2275       N  0.56817956  0.94050736  0.14977629    -0.82400
H2276       H  0.60381667  0.90205703  0.17130338     0.13300
C2277       C  0.63814333  0.87137475  0.13434828     0.02700
N2278       N  0.63574932  0.88067407  0.05247959    -0.81000
H2279       H  0.60025924  0.91907788  0.03081038     0.18100
C2280       C  0.63380572  0.83913857  0.13897096    -0.25900
C2281       C  0.65097183  0.81947878  0.15591277     0.36200
C2282       C  0.67286656  0.83255927  0.16830141    -0.19900
C2283       C  0.67705037  0.86495280  0.16347230    -0.25100
C2284       C  0.65979103  0.88455277  0.14688207     0.27500
H2285       H  0.61698930  0.82936530  0.12926306     0.13300
N2286       N  0.64638777  0.78634161  0.16003821    -0.82400
H2287       H  0.69369083  0.87511776  0.17334275     0.18200
N2288       N  0.66387235  0.91786616  0.14346518    -0.81000
H2289       H  0.62941089  0.78066404  0.14969450     0.33800
H2290       H  0.65858281  0.77438547  0.14278486     0.38300
H2291       H  0.68052629  0.92390962  0.15479905     0.33700
H2292       H  0.66444508  0.92342625  0.11432503     0.30400
H2293       H  0.63244070  0.88630855  0.02380006     0.33700
H2294       H  0.65269686  0.88947943  0.05890763     0.30400
H2295       H  0.57094781  0.96477951  0.14749014     0.38300
H2296       H  0.57136817  0.93455436  0.17839311     0.33800
C2297       C  0.83303412  0.68026062  0.16275342    -0.20000
C2298       C  0.85137090  0.66606105  0.18446379     0.36300
C2299       C  0.86891417  0.64830211  0.16579903    -0.25900
C2300       C  0.86859585  0.64445036  0.12593980     0.02700
C2301       C  0.85050429  0.65895702  0.10408928     0.27500
C2302       C  0.83271749  0.67648173  0.12278827    -0.25100
N2303       N  0.85173341  0.66898214  0.22548904    -0.82400
H2304       H  0.88269665  0.63683127  0.18249744     0.13300
C2305       C  0.88706969  0.62440562  0.10788314     0.02700
N2306       N  0.85039811  0.65594840  0.06309144    -0.81000
H2307       H  0.81871184  0.68752960  0.10614594     0.18100
C2308       C  0.88013565  0.59743347  0.08770059    -0.25900
C2309       C  0.89710122  0.57665355  0.07233780     0.36200
C2310       C  0.92180530  0.58306089  0.07724946    -0.19900
C2311       C  0.92851773  0.61054581  0.09718345    -0.25100
C2312       C  0.91147592  0.63124137  0.11230754     0.27500
H2313       H  0.86130728  0.59221528  0.08465269     0.13300
N2314       N  0.88913599  0.54918035  0.05200181    -0.82400
H2315       H  0.94720949  0.61622942  0.10084766     0.18200
N2316       N  0.91882976  0.65930993  0.13206525    -0.81000
H2317       H  0.87055468  0.54891889  0.04952391     0.33800
H2318       H  0.89363408  0.52962660  0.06862903     0.38300
H2319       H  0.93742077  0.66094473  0.13301000     0.33700
H2320       H  0.91282649  0.67858912  0.11612710     0.30400
H2321       H  0.83595770  0.66809239  0.05125716     0.33700
H2322       H  0.86582506  0.66685992  0.05273564     0.30400
H2323       H  0.83656812  0.65761987  0.23612168     0.38300
H2324       H  0.86643718  0.65725449  0.23711449     0.33800
C2325       C  0.83318105  0.82481950  0.33868358    -0.20000
C2326       C  0.85528729  0.81152150  0.34936763     0.36300
C2327       C  0.87275235  0.83071825  0.36658109    -0.25900
C2328       C  0.86839716  0.86269222  0.37343185     0.02700
C2329       C  0.84624766  0.87585053  0.36349588     0.27500
C2330       C  0.82881970  0.85676076  0.34637167    -0.25100
N2331       N  0.85977796  0.77862360  0.34320694    -0.82400
H2332       H  0.88982896  0.82081061  0.37463714     0.13300
C2333       C  0.88730726  0.88251707  0.39035837     0.02700
N2334       N  0.84177792  0.90870629  0.37012694    -0.81000
H2335       H  0.81188570  0.86705862  0.33825420     0.18100
C2336       C  0.90236616  0.89958982  0.36599664    -0.25900
C2337       C  0.91997242  0.91968395  0.38069138     0.36200
C2338       C  0.92286335  0.92205838  0.42091076    -0.19900
C2339       C  0.90750970  0.90527625  0.44523565    -0.25100
C2340       C  0.88969148  0.88549783  0.43032079     0.27500
H2341       H  0.90012974  0.89767429  0.33525066     0.13300
N2342       N  0.93399897  0.93770832  0.35399454    -0.82400
H2343       H  0.90968705  0.90728473  0.47599042     0.18200
N2344       N  0.87421585  0.86815042  0.45548218    -0.81000
H2345       H  0.92227564  0.95188596  0.33834224     0.33800
H2346       H  0.94556939  0.95321056  0.36782375     0.38300
H2347       H  0.87854158  0.87267517  0.48408749     0.33700
H2348       H  0.85687025  0.87644039  0.45135333     0.30400
H2349       H  0.82472521  0.91481922  0.36057850     0.33700
H2350       H  0.84195033  0.91242154  0.39969819     0.30400
H2351       H  0.84781463  0.76592156  0.36021782     0.38300
H2352       H  0.87688561  0.77263946  0.35262541     0.33800
C2353       C  0.92052800  0.57426818  0.41410804    -0.20000
C2354       C  0.92371449  0.58839213  0.37772097     0.36300
C2355       C  0.90561410  0.60741240  0.36250445    -0.25900
C2356       C  0.88444138  0.61258887  0.38267236     0.02700
C2357       C  0.88099825  0.59818136  0.41861550     0.27500
C2358       C  0.89900406  0.57891868  0.43384024    -0.25100
N2359       N  0.94520200  0.58327908  0.35621328    -0.82400
H2360       H  0.90795340  0.61825167  0.33464551     0.13300
C2361       C  0.86605412  0.63315349  0.36545579     0.02700
N2362       N  0.85949142  0.60379133  0.43983788    -0.81000
H2363       H  0.89652300  0.56836400  0.46182278     0.18100
C2364       C  0.84385448  0.62033379  0.35584212    -0.25900
C2365       C  0.82631517  0.63869890  0.33790147     0.36200
C2366       C  0.83110342  0.67073250  0.32950415    -0.19900
C2367       C  0.85349169  0.68343580  0.33901265    -0.25100
C2368       C  0.87087140  0.66505993  0.35750867     0.27500
H2369       H  0.84038510  0.59570515  0.36178044     0.13300
N2370       N  0.80387494  0.62468243  0.32745340    -0.82400
H2371       H  0.85720827  0.70796458  0.33294791     0.18200
N2372       N  0.89322654  0.67873005  0.36900490    -0.81000
H2373       H  0.80309294  0.60118659  0.33628883     0.33800
H2374       H  0.80289845  0.62453938  0.29755130     0.38300
H2375       H  0.89400097  0.70245269  0.36111885     0.33700
H2376       H  0.89393156  0.67808698  0.39892314     0.30400
H2377       H  0.85979596  0.59154464  0.46583031     0.33700
H2378       H  0.85905661  0.62772757  0.44668390     0.30400
H2379       H  0.94581642  0.55941143  0.34905873     0.38300
H2380       H  0.94479930  0.59576993  0.33040376     0.33800
C2381       C  0.58379590  0.92380175  0.42164171    -0.20000
C2382       C  0.58514081  0.89114694  0.42999657     0.36300
C2383       C  0.60301891  0.87308872  0.41286344    -0.25900
C2384       C  0.61978650  0.88683411  0.38835656     0.02700
C2385       C  0.61889882  0.91936344  0.38075805     0.27500
C2386       C  0.60082990  0.93758761  0.39746783    -0.25100
N2387       N  0.56907217  0.87555143  0.45597730    -0.82400
H2388       H  0.60389676  0.84806999  0.41882566     0.13300
C2389       C  0.63809392  0.86676160  0.37049528     0.02700
N2390       N  0.63634076  0.93361909  0.35607188    -0.81000
H2391       H  0.59984884  0.96256309  0.39132565     0.18100
C2392       C  0.63675386  0.86078216  0.33112731    -0.25900
C2393       C  0.65390911  0.84205901  0.31291969     0.36200
C2394       C  0.67252928  0.82871063  0.33484009    -0.19900
C2395       C  0.67392632  0.83499802  0.37425652    -0.25100
C2396       C  0.65680312  0.85386846  0.39235888     0.27500
H2397       H  0.62235823  0.87102202  0.31457238     0.13300
N2398       N  0.65284761  0.83725188  0.27219638    -0.82400
H2399       H  0.68835300  0.82501013  0.39097094     0.18200
N2400       N  0.65830963  0.86009823  0.43274436    -0.81000
H2401       H  0.63792912  0.84842762  0.26046569     0.33800
H2402       H  0.66780284  0.84816109  0.26018567     0.38300
H2403       H  0.67309590  0.84876963  0.44468352     0.33700
H2404       H  0.66116852  0.88425333  0.43617645     0.30400
H2405       H  0.63311798  0.95773020  0.35318511     0.33700
H2406       H  0.65295982  0.93141139  0.36941224     0.30400
H2407       H  0.55728509  0.89120241  0.46883968     0.38300
H2408       H  0.57929554  0.86622457  0.47832844     0.33800
C2409       C  0.92363937  0.92510133  0.08208301    -0.20000
C2410       C  0.91263112  0.93336230  0.11701528     0.36300
C2411       C  0.89538935  0.91318512  0.13268897    -0.25900
C2412       C  0.88891850  0.88494787  0.11452345     0.02700
C2413       C  0.90010909  0.87668172  0.07957788     0.27500
C2414       C  0.91712703  0.89707384  0.06373666    -0.25100
N2415       N  0.91868110  0.96156068  0.13764251    -0.82400
H2416       H  0.88692389  0.91961080  0.15942595     0.13300
C2417       C  0.87044625  0.86486577  0.13283637     0.02700
N2418       N  0.89515004  0.84772313  0.05977024    -0.81000
H2419       H  0.92576547  0.89060123  0.03715990     0.18100
C2420       C  0.84822155  0.86127616  0.11501003    -0.25900
C2421       C  0.83014241  0.84317447  0.13197519     0.36200
C2422       C  0.83409198  0.82860807  0.16792302    -0.19900
C2423       C  0.85646892  0.83212879  0.18559891    -0.25100
C2424       C  0.87467525  0.85007610  0.16838151     0.27500
H2425       H  0.84490989  0.87258486  0.08767440     0.13300
N2426       N  0.80794190  0.83927016  0.11217588    -0.82400
H2427       H  0.85967302  0.82124024  0.21319862     0.18200
N2428       N  0.89744230  0.85348926  0.18686574    -0.81000
H2429       H  0.80059853  0.86155010  0.10752347     0.33800
H2430       H  0.81143703  0.82914498  0.08551448     0.38300
H2431       H  0.89762911  0.84147147  0.21300861     0.33700
H2432       H  0.91016208  0.84268460  0.16946528     0.30400
H2433       H  0.91103847  0.83494016  0.05855324     0.33700
H2434       H  0.88311843  0.83361797  0.07473353     0.30400
H2435       H  0.93157239  0.97485947  0.12338910     0.38300
H2436       H  0.90336650  0.97549153  0.13897443     0.33800
O2437       O  0.96348460  0.93556917  0.92727963    -0.75400
O2438       O  0.93565653  0.96424528  0.95975087    -0.54300
C2439       C  0.94185892  0.94252406  0.93616550     0.78400
O2440       O  0.54444504  0.94413808  0.57751376    -0.60000
O2441       O  0.57164418  0.96949459  0.53988601    -0.53000
C2442       C  0.56588014  0.94998461  0.56650071     0.70400
O2443       O  0.96514190  0.93810613  0.57632095    -0.74500
O2444       O  0.93628094  0.96546950  0.54437239    -0.55100
C2445       C  0.94324788  0.94426202  0.56826396     0.76400
O2446       O  0.54324128  0.93443193  0.92998123    -0.59700
O2447       O  0.57107221  0.96630797  0.95813256    -0.52800
C2448       C  0.56489488  0.94265900  0.93738222     0.73000
Zr2449     Zr  0.00345637  0.95406402  0.94356415     2.54700
O2450       O  0.00240842  0.89683384  0.94108675    -0.80200
O2451       O  0.50427774  0.95764439  0.87421822    -0.93700
Zr2452     Zr  0.00439217  0.95808747  0.55916249     2.64700
O2453       O  0.00660763  0.90095532  0.56410023    -0.98600
O2454       O  0.50344656  0.96412976  0.62789250    -0.80700
O2455       O  0.98089269  0.95490415  0.00094301    -0.84000
O2456       O  0.52589797  0.95483544  0.00092231    -2.18700
O2457       O  0.54147217  0.56399231  0.92074337    -0.67400
O2458       O  0.56997554  0.53924772  0.95636034    -0.52000
C2459       C  0.56325241  0.55902364  0.93052368     0.71300
O2460       O  0.96258625  0.56810881  0.56837111    -0.60300
O2461       O  0.93488733  0.53822566  0.53768896    -0.52300
C2462       C  0.94084723  0.56077156  0.56034448     0.73200
O2463       O  0.54277104  0.57026273  0.56639034    -0.71700
O2464       O  0.57072359  0.53971595  0.53695151    -0.50400
C2465       C  0.56442180  0.56281578  0.55834553     0.74500
O2466       O  0.96166028  0.56417488  0.92623391    -0.67100
O2467       O  0.93409824  0.53613111  0.95993487    -0.54300
C2468       C  0.94007696  0.55738879  0.93541569     0.72900
Zr2469     Zr  0.50207273  0.54667679  0.94086082     2.77500
O2470       O  0.50208891  0.60393945  0.93644605    -0.97800
O2471       O  0.49944003  0.53836671  0.87199803    -0.78600
Zr2472     Zr  0.50279221  0.55038641  0.55321553     2.70100
O2473       O  0.50230581  0.60762390  0.55567670    -0.79900
O2474       O  0.50398090  0.54619365  0.62270455    -0.99000
Zr2475     Zr  0.95708030  0.50106466  0.49899687     2.21500
Zr2476     Zr  0.54872547  0.00216377  0.99841142     2.11100
O2477       O  0.52505164  0.54966517  0.49565248    -2.47600
O2478       O  0.97942306  0.54873763  0.49597309    -0.79700
O2479       O  0.52626993  0.00041530  0.94051434    -0.71900
O2480       O  0.97994004  0.50337841  0.55652899    -2.32800
O2481       O  0.97875366  0.49961686  0.94320698    -2.29000
O2482       O  0.52687356  0.00521097  0.55659943    -0.73600
H2483       H  0.53655686  0.93765706  0.50238873     0.78400
H2484       H  0.96975028  0.50375683  0.57877828     0.79500
H2485       H  0.53520017  0.56822840  0.99578326     0.81700
H2486       H  0.96812282  0.49886189  0.92144616     0.79300
H2487       H  0.00372270  0.94402365  0.63891825     0.42300
H2488       H  0.52058415  0.53996621  0.62868327     0.41300
H2489       H  0.00338167  0.61504839  0.53138441     0.41000
H2490       H  0.51503763  0.61092253  0.95380189     0.38900
H2491       H  0.51540358  0.53059930  0.86458451     0.42000
H2492       H  0.99140909  0.97284190  0.86733070     0.36800
H2493       H  0.00318323  0.89017985  0.96824192     0.42900
H2494       H  0.51894614  0.89504615  0.54487530     0.39400
H2495       H  0.50802409  0.60871477  0.91039522     0.44300
H2496       H  0.99987917  0.93785984  0.86458063     0.43000
H2497       H  0.01298355  0.89683622  0.59007603     0.43100
H2498       H  0.50279637  0.56819470  0.63175602     0.43500
O2499       O  0.79438295  0.81589089  0.67748375    -0.75400
O2500       O  0.82150825  0.78709906  0.71133406    -0.54300
C2501       C  0.81588309  0.80835284  0.68664299     0.78400
O2502       O  0.71204870  0.81244096  0.82585703    -0.60000
O2503       O  0.68424285  0.78799639  0.78854442    -0.53000
C2504       C  0.69045848  0.80761819  0.81469314     0.70400
O2505       O  0.79222977  0.81402020  0.82558800    -0.74500
O2506       O  0.82030814  0.78586815  0.79337390    -0.55100
C2507       C  0.81396938  0.80734828  0.81720135     0.76400
O2508       O  0.71422434  0.82084042  0.67863955    -0.59700
O2509       O  0.68568222  0.79041303  0.70686554    -0.52800
C2510       C  0.69234996  0.81332813  0.68520131     0.73000
Zr2511     Zr  0.75377278  0.80139268  0.69543118     2.54700
O2512       O  0.75665897  0.85836666  0.70116758    -0.80200
O2513       O  0.75192085  0.80372429  0.62579034    -0.93700
Zr2514     Zr  0.75234576  0.79561174  0.80957935     2.64700
O2515       O  0.75278385  0.85201060  0.82183558    -0.98600
O2516       O  0.75251429  0.78510464  0.87815336    -0.80700
O2517       O  0.77590075  0.79883903  0.75327584    -0.84000
O2518       O  0.73035866  0.79993878  0.75178882    -2.18700
O2519       O  0.71212390  0.69252709  0.67017967    -0.67400
O2520       O  0.68442802  0.71847117  0.70575938    -0.52000
C2521       C  0.69047339  0.69816772  0.68030042     0.71300
O2522       O  0.79099494  0.68377749  0.81816701    -0.60300
O2523       O  0.81975378  0.71397053  0.79023839    -0.52300
C2524       C  0.81290411  0.69075719  0.81127522     0.73200
O2525       O  0.71083144  0.68682600  0.81824130    -0.71700
O2526       O  0.68375669  0.71861371  0.78839128    -0.50400
C2527       C  0.68938234  0.69560301  0.81056006     0.74500
O2528       O  0.79210840  0.68980721  0.67343036    -0.67100
O2529       O  0.81996631  0.71557202  0.70946899    -0.54300
C2530       C  0.81369597  0.69516169  0.68416150     0.72900
Zr2531     Zr  0.75233131  0.70854572  0.68903976     2.77500
O2532       O  0.75128071  0.65138989  0.68370842    -0.97800
O2533       O  0.75463829  0.71668830  0.62013011    -0.78600
Zr2534     Zr  0.75135294  0.70324723  0.80281004     2.70100
O2535       O  0.74958258  0.64611413  0.79876412    -0.79900
O2536       O  0.75241403  0.70376822  0.87249855    -0.99000
Zr2537     Zr  0.79828086  0.75137924  0.75065286     2.21500
Zr2538     Zr  0.70676496  0.75335282  0.74756618     2.11100
O2539       O  0.72903978  0.70580691  0.74533580    -2.47600
O2540       O  0.77476822  0.70490559  0.74651913    -0.79700
O2541       O  0.72961780  0.75557815  0.69017951    -0.71900
O2542       O  0.77537240  0.74898684  0.80804154    -2.32800
O2543       O  0.77638896  0.75439249  0.69210399    -2.29000
O2544       O  0.72830629  0.74984714  0.80631088    -0.73600
H2545       H  0.72051612  0.81855501  0.75269299     0.78400
H2546       H  0.78551500  0.74778735  0.83038551     0.79500
H2547       H  0.71865841  0.68767151  0.74412162     0.81700
H2548       H  0.78694500  0.75491266  0.67029630     0.79300
H2549       H  0.73741022  0.77367182  0.88294504     0.42300
H2550       H  0.73596171  0.70914200  0.88030735     0.41300
H2551       H  0.75012349  0.64162937  0.77097199     0.41000
H2552       H  0.73761146  0.64465519  0.69966637     0.38900
H2553       H  0.76026629  0.69630718  0.60988148     0.42000
H2554       H  0.76664006  0.79317719  0.61697833     0.36800
H2555       H  0.74989823  0.86307902  0.72668182     0.42900
H2556       H  0.74050135  0.86084033  0.80451592     0.39400
H2557       H  0.74612897  0.64724130  0.65706045     0.44300
H2558       H  0.75441886  0.82622574  0.61955548     0.43000
H2559       H  0.74602887  0.85431923  0.84785506     0.43100
H2560       H  0.75431000  0.68139894  0.87982999     0.43500
C2561       C  0.58342496  0.58267950  0.57443438    -0.20000
C2562       C  0.58213914  0.61577580  0.57196818     0.36300
C2563       C  0.60043650  0.63405612  0.58803436    -0.25900
C2564       C  0.61977544  0.61982454  0.60652966     0.02700
C2565       C  0.62105881  0.58678485  0.60918367     0.27500
C2566       C  0.60297085  0.56843354  0.59252773    -0.25100
N2567       N  0.56241964  0.63060872  0.55279899    -0.82400
H2568       H  0.59957900  0.65950119  0.58643550     0.13300
C2569       C  0.63787579  0.64003755  0.62479596     0.02700
N2570       N  0.64030859  0.57215855  0.62973877    -0.81000
H2571       H  0.60378409  0.54299848  0.59447603     0.18100
C2572       C  0.63448323  0.64922476  0.66281697    -0.25900
C2573       C  0.65091997  0.66873635  0.68133740     0.36200
C2574       C  0.67146641  0.67935731  0.66143884    -0.19900
C2575       C  0.67468827  0.67008286  0.62311521    -0.25100
C2576       C  0.65799421  0.65065043  0.60450406     0.27500
H2577       H  0.61890792  0.64106101  0.67829036     0.13300
N2578       N  0.64656570  0.67633970  0.72064347    -0.82400
H2579       H  0.69027471  0.67810539  0.60759640     0.18200
N2580       N  0.66117256  0.64198108  0.56506065    -0.81000
H2581       H  0.64427885  0.70063503  0.72311983     0.33800
H2582       H  0.66123519  0.66926705  0.73700089     0.38300
H2583       H  0.67685052  0.65187139  0.55418764     0.33700
H2584       H  0.66336805  0.61758210  0.56396818     0.30400
H2585       H  0.63819914  0.54770499  0.63009746     0.33700
H2586       H  0.65604552  0.57680188  0.61477977     0.30400
H2587       H  0.56315594  0.62423398  0.52391610     0.38300
H2588       H  0.56411996  0.65510284  0.55376474     0.33800
C2589       C  0.66995430  0.67665542  0.82728099    -0.20000
C2590       C  0.65011778  0.69041061  0.84560545     0.38300
C2591       C  0.63282805  0.67074907  0.86243758    -0.25900
C2592       C  0.63477166  0.63791265  0.86024639     0.02700
C2593       C  0.65414528  0.62424562  0.84097856     0.27500
C2594       C  0.67167297  0.64377068  0.82499638    -0.25100
N2595       N  0.64802783  0.72405648  0.84829029    -0.82400
H2596       H  0.61776388  0.68096694  0.87725457     0.13300
C2597       C  0.61649897  0.61791103  0.87849807     0.02700
N2598       N  0.65586629  0.59060766  0.83767751    -0.81000
H2599       H  0.68673732  0.63328338  0.81044084     0.18100
C2600       C  0.59719151  0.60717956  0.85665181    -0.25900
C2601       C  0.57965538  0.58783236  0.87300219     0.36200
C2602       C  0.58175644  0.57842671  0.91166414    -0.19900
C2603       C  0.60121945  0.58919801  0.93341218    -0.25100
C2604       C  0.61852064  0.60912896  0.91725794     0.27500
H2605       H  0.59570159  0.61396689  0.82681473     0.13300
N2606       N  0.55991608  0.57751175  0.85012759    -0.82400
H2607       H  0.60261339  0.58267795  0.96334572     0.18200
N2608       N  0.63789580  0.62095636  0.94012294    -0.81000
H2609       H  0.55094853  0.59743400  0.84005241     0.33800
H2610       H  0.56662829  0.56535929  0.82650092     0.38300
H2611       H  0.63658944  0.61268140  0.96825239     0.33700
H2612       H  0.65372790  0.61184659  0.92900894     0.30400
H2613       H  0.67086594  0.58437658  0.82167724     0.33700
H2614       H  0.65846921  0.58147192  0.86516722     0.30400
H2615       H  0.64484683  0.73272095  0.82073377     0.38300
H2616       H  0.63308820  0.73014264  0.86450727     0.33800
C2617       C  0.58514680  0.93162443  0.58446725    -0.20000
C2618       C  0.58561947  0.92584940  0.62426725     0.36300
C2619       C  0.60343035  0.90631908  0.63959377    -0.25900
C2620       C  0.62057435  0.89253685  0.61585015     0.02700
C2621       C  0.62002841  0.89805353  0.57608093     0.27500
C2622       C  0.60239094  0.91782109  0.56079633    -0.25100
N2623       N  0.56813733  0.93996590  0.64887147    -0.82400
H2624       H  0.60401318  0.90179995  0.67013098     0.13300
C2625       C  0.63905652  0.87237283  0.63316704     0.02700
N2626       N  0.63683606  0.88271817  0.55132268    -0.81000
H2627       H  0.60163218  0.92171883  0.53013162     0.18100
C2628       C  0.63410787  0.84049525  0.63960669    -0.25900
C2629       C  0.65120123  0.82060050  0.65638657     0.36200
C2630       C  0.67368672  0.83304267  0.66694358    -0.19900
C2631       C  0.67846555  0.86513344  0.66038596    -0.25100
C2632       C  0.66127887  0.88498598  0.64390830     0.27500
H2633       H  0.61685149  0.83115219  0.63138962     0.13300
N2634       N  0.64589207  0.78782841  0.66224166    -0.82400
H2635       H  0.69551567  0.87493393  0.66889402     0.18200
N2636       N  0.66594976  0.91807697  0.63924708    -0.81000
H2637       H  0.62855482  0.78261380  0.65317313     0.33800
H2638       H  0.65736086  0.77483651  0.64481317     0.38300
H2639       H  0.68294003  0.92374845  0.64951821     0.33700
H2640       H  0.66603987  0.92312960  0.60997283     0.30400
H2641       H  0.63358669  0.88869844  0.52273123     0.33700
H2642       H  0.65383763  0.89123917  0.55786329     0.30400
H2643       H  0.57058785  0.96434866  0.64770411     0.38300
H2644       H  0.57097319  0.93325338  0.67733006     0.33800
C2645       C  0.83257335  0.67609937  0.66610648    -0.20000
C2646       C  0.85158307  0.66361132  0.68782007     0.36300
C2647       C  0.86893556  0.64518289  0.66958698    -0.25900
C2648       C  0.86786007  0.63926306  0.63006949     0.02700
C2649       C  0.84881070  0.65175573  0.60837781     0.27500
C2650       C  0.83119298  0.66967074  0.62675026    -0.25100
N2651       N  0.85291975  0.66911235  0.72839023    -0.82400
H2652       H  0.88326447  0.63504293  0.68636251     0.13300
C2653       C  0.88660984  0.61950366  0.61204314     0.02700
N2654       N  0.84758649  0.64649834  0.56775783    -0.81000
H2655       H  0.81655009  0.67922396  0.61014004     0.18100
C2656       C  0.87992227  0.59289194  0.59090871    -0.25900
C2657       C  0.89700313  0.57324390  0.57384920     0.36200
C2658       C  0.92162799  0.58014358  0.57835556    -0.19900
C2659       C  0.92817223  0.60683813  0.59995441    -0.25100
C2660       C  0.91100539  0.62670747  0.61633881     0.27500
H2661       H  0.86116629  0.58719331  0.58805996     0.13300
N2662       N  0.88922693  0.54644401  0.55207197    -0.82400
H2663       H  0.94682676  0.61275005  0.60360104     0.18200
N2664       N  0.91824746  0.65450285  0.63677808    -0.81000
H2665       H  0.87062257  0.54563182  0.55031918     0.33800
H2666       H  0.89437686  0.52636857  0.56717866     0.38300
H2667       H  0.93682757  0.65645080  0.63740909     0.33700
H2668       H  0.91194549  0.67398738  0.62152482     0.30400
H2669       H  0.83242938  0.65715559  0.55610551     0.33700
H2670       H  0.86232759  0.65758590  0.55532946     0.30400
H2671       H  0.83826689  0.65796937  0.74101897     0.38300
H2672       H  0.86813943  0.65861527  0.74003987     0.33800
C2673       C  0.83279436  0.82660292  0.83576697    -0.20000
C2674       C  0.85565488  0.81440669  0.84415029     0.36300
C2675       C  0.87293886  0.83413668  0.86088294    -0.25900
C2676       C  0.86777179  0.86557557  0.86954909     0.02700
C2677       C  0.84500207  0.87776492  0.86148650     0.27500
C2678       C  0.82771901  0.85813671  0.84481521    -0.25100
N2679       N  0.86114095  0.78203625  0.83620209    -0.82400
H2680       H  0.89051681  0.82500012  0.86733754     0.13300
C2681       C  0.88649214  0.88558666  0.88683454     0.02700
N2682       N  0.83968771  0.91015103  0.86966015    -0.81000
H2683       H  0.81028626  0.86770530  0.83826628     0.18100
C2684       C  0.90098779  0.90392212  0.86294411    -0.25900
C2685       C  0.91898060  0.92323780  0.87808440     0.36200
C2686       C  0.92269878  0.92381367  0.91824944    -0.19900
C2687       C  0.90800233  0.90559684  0.94209527    -0.25100
C2688       C  0.88993195  0.88639214  0.92676550     0.27500
H2689       H  0.89817861  0.90336077  0.83223517     0.13300
N2690       N  0.93266862  0.94217777  0.85189952    -0.82400
H2691       H  0.91085480  0.90610219  0.97276833     0.18200
N2692       N  0.87531289  0.86734894  0.95143618    -0.81000
H2693       H  0.92084213  0.95744633  0.83808487     0.33800
H2694       H  0.94492422  0.95650418  0.86609351     0.38300
H2695       H  0.88042329  0.87024267  0.98002364     0.33700
H2696       H  0.85781462  0.87557839  0.94928279     0.30400
H2697       H  0.82229172  0.91561036  0.86116810     0.33700
H2698       H  0.84032237  0.91305598  0.89935273     0.30400
H2699       H  0.85028795  0.76810488  0.85370481     0.38300
H2700       H  0.87875622  0.77694985  0.84380434     0.33800
C2701       C  0.92092034  0.57588316  0.91668143    -0.20000
C2702       C  0.92409418  0.58922239  0.87983492     0.36300
C2703       C  0.90608546  0.60807502  0.86409921    -0.25900
C2704       C  0.88497386  0.61389094  0.88410890     0.02700
C2705       C  0.88150819  0.60030696  0.92055447     0.27500
C2706       C  0.89950371  0.58131742  0.93643687    -0.25100
N2707       N  0.94544755  0.58337350  0.85827309    -0.82400
H2708       H  0.90840266  0.61814642  0.83581332     0.13300
C2709       C  0.86659798  0.63394737  0.86593771     0.02700
N2710       N  0.85988499  0.60615720  0.94138491    -0.81000
H2711       H  0.89702542  0.57136066  0.96474114     0.18100
C2712       C  0.84434296  0.62087693  0.85710397    -0.25900
C2713       C  0.82679181  0.63865545  0.83831231     0.36200
C2714       C  0.83142680  0.67056296  0.82906403    -0.19900
C2715       C  0.85396839  0.68337810  0.83730558    -0.25100
C2716       C  0.87160016  0.66537786  0.85566218     0.27500
H2717       H  0.84088804  0.59644002  0.86414174     0.13300
N2718       N  0.80453495  0.62415299  0.82781360    -0.82400
H2719       H  0.85772252  0.70767933  0.83003442     0.18200
N2720       N  0.89452732  0.67888314  0.86416449    -0.81000
H2721       H  0.80394563  0.60074321  0.83702025     0.33800
H2722       H  0.80372437  0.62363261  0.79790113     0.38300
H2723       H  0.89543978  0.70213362  0.85442925     0.33700
H2724       H  0.89631232  0.67966276  0.89395065     0.30400
H2725       H  0.86018328  0.59452624  0.96779288     0.33700
H2726       H  0.85922715  0.63023803  0.94736885     0.30400
H2727       H  0.94581574  0.55936907  0.85178263     0.38300
H2728       H  0.94506059  0.59537294  0.83211706     0.33800
C2729       C  0.58406437  0.92304926  0.92135668    -0.20000
C2730       C  0.58780875  0.89157114  0.93351309     0.36300
C2731       C  0.60564947  0.87367858  0.91597778    -0.25900
C2732       C  0.62004035  0.88646121  0.88712183     0.02700
C2733       C  0.61691677  0.91805160  0.87589627     0.27500
C2734       C  0.59885920  0.93604404  0.89308081    -0.25100
N2735       N  0.57410225  0.87700281  0.96351661    -0.82400
H2736       H  0.60825063  0.84946358  0.92484875     0.13300
C2737       C  0.63816150  0.86626584  0.86872650     0.02700
N2738       N  0.63215234  0.93166300  0.84723357    -0.81000
H2739       H  0.59614365  0.96021902  0.88417221     0.18100
C2740       C  0.63559159  0.85836504  0.82997046    -0.25900
C2741       C  0.65224993  0.83886843  0.81166012     0.36200
C2742       C  0.67170064  0.82679920  0.83288745    -0.19900
C2743       C  0.67414856  0.83474979  0.87170357    -0.25100
C2744       C  0.65764284  0.85450485  0.88978246     0.27500
H2745       H  0.62057043  0.86759853  0.81398575     0.13300
N2746       N  0.64977881  0.83196187  0.77153425    -0.82400
H2747       H  0.68912437  0.82567858  0.88793774     0.18200
N2748       N  0.66071822  0.86305924  0.92928988    -0.81000
H2749       H  0.63440857  0.84243526  0.76036273     0.33800
H2750       H  0.66420889  0.84231692  0.75735367     0.38300
H2751       H  0.67588894  0.85228921  0.94074117     0.33700
H2752       H  0.66380617  0.88732125  0.93026278     0.30400
H2753       H  0.62744559  0.95508490  0.84207509     0.33700
H2754       H  0.64948586  0.93201823  0.85830209     0.30400
H2755       H  0.56176133  0.89246948  0.97536904     0.38300
H2756       H  0.58589137  0.87114337  0.98562785     0.33800
C2757       C  0.92498316  0.92424549  0.58668109    -0.20000
C2758       C  0.90464552  0.93653576  0.60542436     0.36300
C2759       C  0.88766954  0.91572716  0.62052806    -0.25900
C2760       C  0.89054782  0.88305769  0.61789722     0.02700
C2761       C  0.91090302  0.87069692  0.59952821     0.27500
C2762       C  0.92788810  0.89145990  0.58442289    -0.25100
N2763       N  0.90104097  0.96963620  0.61137806    -0.82400
H2764       H  0.87219429  0.92516827  0.63504781     0.13300
C2765       C  0.87214038  0.86261242  0.63517004     0.02700
N2766       N  0.91470995  0.83744821  0.59491310    -0.81000
H2767       H  0.94331704  0.88182460  0.56995474     0.18100
C2768       C  0.85181551  0.85499390  0.61378579    -0.25900
C2769       C  0.83351428  0.83671263  0.62976066     0.36200
C2770       C  0.83550290  0.82589521  0.66788404    -0.19900
C2771       C  0.85621441  0.83297092  0.68892294    -0.25100
C2772       C  0.87453171  0.85139755  0.67295156     0.27500
H2773       H  0.85011162  0.86343512  0.58460581     0.13300
N2774       N  0.81311254  0.82880639  0.60697026    -0.82400
H2775       H  0.85782347  0.82483500  0.71823709     0.18200
N2776       N  0.89524461  0.85949475  0.69517174    -0.81000
H2777       H  0.80511843  0.84973823  0.59788117     0.33800
H2778       H  0.81900621  0.81673477  0.58271814     0.38300
H2779       H  0.89402564  0.84994178  0.72271046     0.33700
H2780       H  0.90999260  0.84897194  0.68222293     0.30400
H2781       H  0.92996738  0.83146817  0.61051887     0.33700
H2782       H  0.90070451  0.82416545  0.60615603     0.30400
H2783       H  0.91553304  0.98308445  0.60229372     0.38300
H2784       H  0.88619789  0.97633862  0.59519866     0.33800
loop_ 
_geom_bond_atom_site_label_1 
_geom_bond_atom_site_label_2 
_geom_bond_distance 
_geom_bond_site_symmetry_2 
_ccdc_geom_bond_type 
O1          Zr13   2.435       .  S
O1            C3   1.287       .  A
O2        Zr1083   2.424       .  S
O2            C3   1.286       .  A
C3          C250   1.472       .  S
O4        Zr1408   2.442       .  S
O4            C6   1.288       .  A
O5         Zr388   2.419   1_554  S
O5            C6   1.286       .  A
C6          C181   1.473       .  S
O7          Zr16   2.438       .  S
O7            C9   1.287       .  A
O8         Zr735   2.428       .  S
O8            C9   1.287       .  A
C9          C321   1.472       .  S
O10       Zr1405   2.445       .  S
O10          C12   1.289       .  A
O11         Zr40   2.425       .  S
O11          C12   1.286       .  A
C12         C293   1.472       .  S
Zr13       O1402   2.439       .  S
Zr13         O14   2.434       .  S
Zr13       O1407   2.436       .  S
Zr13         O19   2.372       .  S
Zr13       O1412   2.369       .  S
Zr13       O1435   2.373       .  S
Zr13        O741   2.374       .  S
O14          H57   0.990       .  S
O15       Zr1405   2.437       .  S
O15        H1448   0.990   1_455  S
O15        H1452   0.990   1_455  S
Zr16       O1396   2.435       .  S
Zr16         O17   2.440       .  S
Zr16       O1410   2.436       .  S
Zr16       O1760   2.370       .  S
Zr16        O367   2.370       .  S
Zr16        O740   2.371       .  S
Zr16       O1438   2.377       .  S
O17          H61   0.990       .  S
O17        H1450   0.990       .  S
O18       Zr1408   2.434       .  S
O18        H1443   0.990       .  S
O19        Zr364   2.371       .  S
O19       Zr1083   2.378       .  S
O20         Zr40   2.382       .  S
O20       Zr1405   2.370       .  S
O20       Zr1756   2.363       .  S
O20         H395   0.965       .  S
O21         Zr33   2.438       .  S
O21          C23   1.287       .  A
O22        Zr736   2.426       .  S
O22          C23   1.288       .  A
C23         C166   1.479       .  S
O24       Zr1428   2.439       .  S
O24          C26   1.288       .  A
O25         Zr39   2.427   1_554  S
O25          C26   1.287       .  A
C26         C222   1.495       .  S
O27         Zr36   2.435       .  S
O27          C29   1.287       .  A
O28       Zr1084   2.427   1_554  S
O28          C29   1.287       .  A
C29         C125   1.471       .  S
O30       Zr1425   2.433       .  S
O30          C32   1.287       .  A
O31        Zr387   2.427       .  S
O31          C32   1.288       .  A
C32         C265   1.483       .  S
Zr33       O1422   2.431   1_455  S
Zr33         O34   2.436   1_455  S
Zr33         O35   2.436   1_455  S
Zr33        O389   2.369       .  S
Zr33       O1782   2.370   1_455  S
Zr33       O1437   2.367   1_445  S
Zr33        O739   2.374       .  S
O34          H54   0.990   1_655  S
O34          H59   0.990   1_655  S
O35          H55   0.990   1_655  S
Zr36       O1416   2.442   1_455  S
Zr36         O37   2.435       .  S
Zr36         O38   2.435       .  S
Zr36         O41   2.370   1_554  S
Zr36       O1434   2.370   1_454  S
Zr36        O742   2.373       .  S
Zr36       O1436   2.369   1_455  S
O37        H1445   0.990       .  S
O38          H52   0.990       .  S
O38          H62   0.990   1_455  S
Zr39       O1046   2.426   1_545  S
Zr39        O704   2.423   1_546  S
Zr39        O379   2.426       .  S
Zr39         O42   2.377       .  S
Zr39         O44   2.384   1_556  S
Zr39       O1063   2.379   1_546  S
Zr39        O393   2.385   1_545  S
Zr40        O353   2.422       .  S
Zr40        O718   2.421       .  S
Zr40       O1072   2.429       .  S
Zr40         O43   2.386       .  S
Zr40       O1085   2.384       .  S
Zr40        O394   2.383       .  S
O41        Zr381   2.362       .  S
O41       Zr1084   2.381       .  S
O41         H397   0.966       .  S
O42       Zr1773   2.369       .  S
O42       Zr1428   2.371   1_556  S
O43       Zr1405   2.375       .  S
O43        Zr729   2.371       .  S
O44        Zr712   2.370   1_545  S
O44       Zr1428   2.371       .  S
O44          H48   0.966       .  S
O45        Zr709   2.372       .  S
O45       Zr1425   2.366   1_565  S
O45        Zr387   2.390   1_565  S
O45          H50   0.966       .  S
O46       Zr1408   2.374       .  S
O46        Zr732   2.373       .  S
O46        Zr388   2.386   1_554  S
H47         O368   0.966       .  S
H49         O389   0.966       .  S
H51        O1410   0.990       .  S
H53        O1429   0.990       .  S
H56        O1407   0.990       .  S
H58        O1409   0.990       .  S
H60        O1407   0.990       .  S
O63         Zr75   2.436       .  S
O63          C65   1.287       .  A
O64        Zr101   2.431       .  S
O64          C65   1.288       .  A
C65         C334   1.481       .  S
O66         Zr78   2.436       .  S
O66          C68   1.287       .  A
O67        Zr102   2.422       .  S
O67          C68   1.286       .  A
C68         C306   1.476       .  S
O69         Zr78   2.435       .  S
O69          C71   1.287       .  A
O70        Zr101   2.423       .  S
O70          C71   1.286       .  A
C71         C237   1.478       .  S
O72         Zr75   2.440       .  S
O72          C74   1.288       .  A
O73        Zr102   2.423       .  S
O73          C74   1.286       .  A
C74         C194   1.481       .  S
Zr75         O76   2.435       .  S
Zr75         O77   2.434       .  S
Zr75         O81   2.371       .  S
Zr75         O82   2.364       .  S
Zr75        O105   2.373       .  S
Zr75        O107   2.374       .  S
O76         H119   0.990       .  S
O77         H118   0.990       .  S
O77         H122   0.990       .  S
Zr78         O79   2.436       .  S
Zr78         O80   2.434       .  S
Zr78         O82   2.370       .  S
Zr78         O81   2.372       .  S
Zr78        O106   2.367       .  S
Zr78        O108   2.370       .  S
O79         H120   0.990       .  S
O79         H123   0.990       .  S
O80         H113   0.990       .  S
O81        Zr101   2.379       .  S
O82        Zr102   2.382       .  S
O82         H109   0.966       .  S
O83         Zr95   2.452       .  S
O83          C85   1.290       .  A
O84        Zr102   2.420       .  S
O84          C85   1.285       .  A
C85         C138   1.482       .  S
O86         Zr98   2.431       .  S
O86          C88   1.286       .  A
O87        Zr101   2.427       .  S
O87          C88   1.287       .  A
C88         C278   1.483       .  S
O89         Zr98   2.442       .  S
O89          C91   1.288       .  A
O90        Zr102   2.419       .  S
O90          C91   1.285       .  A
C91         C153   1.475       .  S
O92         Zr95   2.449       .  S
O92          C94   1.290       .  A
O93        Zr101   2.426       .  S
O93          C94   1.287       .  A
C94         C209   1.486       .  S
Zr95         O96   2.436       .  S
Zr95         O97   2.434       .  S
Zr95        O103   2.373       .  S
Zr95        O104   2.376       .  S
Zr95        O107   2.371       .  S
Zr95        O105   2.373       .  S
O96         H116   0.990       .  S
O96         H121   0.990       .  S
O97         H117   0.990       .  S
Zr98         O99   2.433       .  S
Zr98        O100   2.437       .  S
Zr98        O104   2.373       .  S
Zr98        O103   2.367       .  S
Zr98        O108   2.371       .  S
Zr98        O106   2.373       .  S
O99         H115   0.990       .  S
O100        H114   0.990       .  S
O100        H124   0.990       .  S
Zr101       O104   2.382       .  S
Zr101       O106   2.388       .  S
Zr101       O107   2.387       .  S
Zr102       O103   2.385       .  S
Zr102       O105   2.382       .  S
Zr102       O108   2.384       .  S
O103        H111   0.966       .  S
O106        H110   0.966       .  S
O107        H112   0.966       .  S
C125        C126   1.412       .  A
C125        C130   1.402       .  A
C126        C127   1.403       .  A
C126        N131   1.438       .  S
C127        C128   1.399       .  A
C127        H132   1.084       .  S
C128        C133   1.475       .  S
C128        C129   1.409       .  A
C129        C130   1.405       .  A
C129        N134   1.437       .  S
C130        H135   1.084       .  S
N131        H151   1.046       .  S
N131        H152   1.046       .  S
C133        C136   1.399       .  A
C133        C140   1.407       .  A
N134        H149   1.046       .  S
N134        H150   1.046       .  S
C136        C137   1.398       .  A
C136        H141   1.084       .  S
C137        C138   1.419       .  A
C137        N142   1.433       .  S
C138        C139   1.407       .  A
C139        C140   1.407       .  A
C139        H143   1.084       .  S
C140        N144   1.438       .  S
N142        H145   1.044       .  S
N142        H146   1.045       .  S
N144        H147   1.046       .  S
N144        H148   1.045       .  S
C153        C154   1.413       .  A
C153        C158   1.404       .  A
C154        C155   1.407       .  A
C154        N159   1.438       .  S
C155        C156   1.401       .  A
C155        H160   1.084       .  S
C156        C161   1.473       .  S
C156        C157   1.406       .  A
C157        C158   1.401       .  A
C157        N162   1.438       .  S
C158        H163   1.084       .  S
N159        H179   1.045       .  S
N159        H180   1.046       .  S
C161        C164   1.399       .  A
C161        C168   1.408       .  A
N162        H177   1.046       .  S
N162        H178   1.045       .  S
C164        C165   1.402       .  A
C164        H169   1.084       .  S
C165        C166   1.411       .  A
C165        N170   1.432       .  S
C166        C167   1.406       .  A
C167        C168   1.404       .  A
C167        H171   1.084       .  S
C168        N172   1.438       .  S
N170        H173   1.046       .  S
N170        H174   1.046       .  S
N172        H175   1.046       .  S
N172        H176   1.045       .  S
C181        C182   1.411       .  A
C181        C186   1.404       .  A
C182        C183   1.405       .  A
C182        N187   1.438       .  S
C183        C184   1.401       .  A
C183        H188   1.084       .  S
C184        C189   1.476       .  S
C184        C185   1.409       .  A
C185        C186   1.405       .  A
C185        N190   1.438       .  S
C186        H191   1.084       .  S
N187        H207   1.046       .  S
N187        H208   1.046       .  S
C189        C192   1.401       .  A
C189        C196   1.406       .  A
N190        H205   1.046       .  S
N190        H206   1.045       .  S
C192        C193   1.407       .  A
C192        H197   1.084       .  S
C193        C194   1.414       .  A
C193        N198   1.438       .  S
C194        C195   1.406       .  A
C195        C196   1.403       .  A
C195        H199   1.084       .  S
C196        N200   1.438       .  S
N198        H201   1.046       .  S
N198        H202   1.046       .  S
N200        H203   1.046       .  S
N200        H204   1.045       .  S
C209        C210   1.415       .  A
C209        C214   1.406       .  A
C210        C211   1.407       .  A
C210        N215   1.439       .  S
C211        C212   1.403       .  A
C211        H216   1.084       .  S
C212        C217   1.487       .  S
C212        C213   1.410       .  A
C213        C214   1.407       .  A
C213        N218   1.438       .  S
C214        H219   1.084       .  S
N215        H235   1.046       .  S
N215        H236   1.046       .  S
C217        C220   1.401       .  A
C217        C224   1.409       .  A
N218        H233   1.046       .  S
N218        H234   1.046       .  S
C220        C221   1.406       .  A
C220        H225   1.084       .  S
C221        C222   1.418       .  A
C221        N226   1.437       .  S
C222        C223   1.410       .  A
C223        C224   1.406       .  A
C223        H227   1.083       .  S
C224        N228   1.438       .  S
N226        H229   1.046       .  S
N226        H230   1.044       .  S
N228        H231   1.046       .  S
N228        H232   1.046       .  S
C237        C238   1.413       .  A
C237        C242   1.405       .  A
C238        C239   1.407       .  A
C238        N243   1.438       .  S
C239        C240   1.401       .  A
C239        H244   1.084       .  S
C240        C245   1.474       .  S
C240        C241   1.406       .  A
C241        C242   1.402       .  A
C241        N246   1.438       .  S
C242        H247   1.084       .  S
N243        H263   1.046       .  S
N243        H264   1.046       .  S
C245        C248   1.399       .  A
C245        C252   1.408       .  A
N246        H261   1.046       .  S
N246        H262   1.045       .  S
C248        C249   1.400       .  A
C248        H253   1.084       .  S
C249        C250   1.419       .  A
C249        N254   1.440       .  S
C250        C251   1.404       .  A
C251        C252   1.405       .  A
C251        H255   1.084       .  S
C252        N256   1.438       .  S
N254        H257   1.046       .  S
N254        H258   1.042       .  S
N256        H259   1.046       .  S
N256        H260   1.045       .  S
C265        C266   1.417       .  A
C265        C270   1.406       .  A
C266        C267   1.403       .  A
C266        N271   1.438       .  S
C267        C268   1.399       .  A
C267        H272   1.084       .  S
C268        C273   1.479       .  S
C268        C269   1.410       .  A
C269        C270   1.405       .  A
C269        N274   1.438       .  S
C270        H275   1.084       .  S
N271        H291   1.046       .  S
N271        H292   1.046       .  S
C273        C276   1.398       .  A
C273        C280   1.410       .  A
N274        H289   1.046       .  S
N274        H290   1.046       .  S
C276        C277   1.402       .  A
C276        H281   1.084       .  S
C277        C278   1.418       .  A
C277        N282   1.438       .  S
C278        C279   1.406       .  A
C279        C280   1.406       .  A
C279        H283   1.083       .  S
C280        N284   1.438       .  S
N282        H285   1.045       .  S
N282        H286   1.046       .  S
N284        H287   1.046       .  S
N284        H288   1.046       .  S
C293        C294   1.419       .  A
C293        C298   1.403       .  A
C294        C295   1.400       .  A
C294        N299   1.440       .  S
C295        C296   1.400       .  A
C295        H300   1.084       .  S
C296        C301   1.480       .  S
C296        C297   1.409       .  A
C297        C298   1.407       .  A
C297        N302   1.437       .  S
C298        H303   1.084       .  S
N299        H319   1.042       .  S
N299        H320   1.046       .  S
C301        C304   1.402       .  A
C301        C308   1.408       .  A
N302        H317   1.046       .  S
N302        H318   1.046       .  S
C304        C305   1.406       .  A
C304        H309   1.084       .  S
C305        C306   1.413       .  A
C305        N310   1.439       .  S
C306        C307   1.404       .  A
C307        C308   1.404       .  A
C307        H311   1.084       .  S
C308        N312   1.438       .  S
N310        H313   1.046       .  S
N310        H314   1.046       .  S
N312        H315   1.046       .  S
N312        H316   1.046       .  S
C321        C322   1.416       .  A
C321        C326   1.402       .  A
C322        C323   1.402       .  A
C322        N327   1.438       .  S
C323        C324   1.403       .  A
C323        H328   1.084       .  S
C324        C329   1.480       .  S
C324        C325   1.416       .  A
C325        C326   1.401       .  A
C325        N330   1.439       .  S
C326        H331   1.085       .  S
N327        H347   1.043       .  S
N327        H348   1.045       .  S
C329        C332   1.400       .  A
C329        C336   1.410       .  A
N330        H345   1.046       .  S
N330        H346   1.043       .  S
C332        C333   1.402       .  A
C332        H337   1.084       .  S
C333        C334   1.413       .  A
C333        N338   1.433       .  S
C334        C335   1.405       .  A
C335        C336   1.407       .  A
C335        H339   1.084       .  S
C336        N340   1.437       .  S
N338        H341   1.046       .  S
N338        H342   1.045       .  S
N340        H343   1.046       .  S
N340        H344   1.045       .  S
O349       Zr361   2.443       .  S
O349        C351   1.288       .  A
O350       Zr735   2.425   1_556  S
O350        C351   1.286       .  A
C351        C598   1.474       .  S
O352      Zr1756   2.437       .  S
O352        C354   1.287       .  A
O353        C354   1.286       .  A
C354        C529   1.474       .  S
O355       Zr364   2.443       .  S
O355        C357   1.289       .  A
O356      Zr1083   2.423       .  S
O356        C357   1.286       .  A
C357        C669   1.477       .  S
O358      Zr1753   2.451       .  S
O358        C360   1.290       .  A
O359       Zr388   2.429       .  S
O359        C360   1.287       .  A
C360        C641   1.475       .  S
Zr361      O1750   2.444       .  S
Zr361       O362   2.434       .  S
Zr361      O1755   2.436       .  S
Zr361       O367   2.374   1_556  S
Zr361      O1760   2.371   1_556  S
Zr361      O1783   2.373       .  S
Zr361      O1089   2.371       .  S
O362        H405   0.990       .  S
O363      Zr1753   2.436       .  S
O363       H1796   0.990   1_455  S
O363       H1800   0.990   1_455  S
Zr364      O1744   2.441       .  S
Zr364       O365   2.436       .  S
Zr364      O1758   2.436       .  S
Zr364      O1412   2.369       .  S
Zr364      O1088   2.369       .  S
Zr364      O1786   2.372       .  S
O365       H1798   0.990       .  S
O365        H409   0.990       .  S
O366      Zr1756   2.435       .  S
O366       H1791   0.990       .  S
O367       Zr735   2.382       .  S
O368      Zr1753   2.369   1_554  S
O368      Zr1408   2.368       .  S
O368       Zr388   2.383   1_554  S
O369       Zr381   2.432       .  S
O369        C371   1.286       .  A
O370      Zr1084   2.423       .  S
O370        C371   1.287       .  A
C371        C514   1.475       .  S
O372      Zr1776   2.434       .  S
O372        C374   1.287       .  A
O373       Zr387   2.427       .  S
O373        C374   1.287       .  A
C374        C570   1.496       .  S
O375       Zr384   2.444       .  S
O375        C377   1.289       .  A
O376       Zr736   2.419       .  S
O376        C377   1.285       .  A
C377        C473   1.476       .  S
O378      Zr1773   2.432       .  S
O378        C380   1.287       .  A
O379        C380   1.287       .  A
C380        C613   1.484       .  S
Zr381      O1770   2.430   1_455  S
Zr381       O382   2.437       .  S
Zr381       O383   2.435       .  S
Zr381      O1434   2.370   1_455  S
Zr381      O1785   2.369   1_455  S
Zr381      O1087   2.373       .  S
O382        H402   0.991       .  S
O382        H407   0.990       .  S
O383        H403   0.990       .  S
Zr384      O1764   2.447   1_455  S
Zr384       O385   2.435       .  S
Zr384       O386   2.432       .  S
Zr384      O1782   2.371   1_455  S
Zr384       O389   2.372       .  S
Zr384      O1090   2.368       .  S
Zr384      O1784   2.369   1_455  S
O385       H1793   0.990       .  S
O386        H400   0.990       .  S
O386        H410   0.990       .  S
Zr387       O698   2.423   1_545  S
Zr387      O1052   2.434   1_545  S
Zr387       O715   2.378   1_545  S
Zr387       O390   2.379       .  S
Zr387       O392   2.384       .  S
Zr388      O1066   2.422       .  S
Zr388       O724   2.426   1_556  S
Zr388       O737   2.383       .  S
Zr388       O391   2.383       .  S
O389       Zr736   2.386       .  S
O390      Zr1425   2.370       .  S
O390      Zr1776   2.370       .  S
O391      Zr1753   2.376       .  S
O391      Zr1077   2.372       .  S
O392      Zr1060   2.371   1_545  S
O392      Zr1776   2.373       .  S
O392        H396   0.966       .  S
O393      Zr1057   2.375       .  S
O393      Zr1773   2.368   1_565  S
O393        H398   0.966       .  S
O394      Zr1756   2.375       .  S
O394      Zr1080   2.372       .  S
H399       O1758   0.990       .  S
H401       O1777   0.990       .  S
H404       O1755   0.990       .  S
H406       O1757   0.990       .  S
H408       O1755   0.990       .  S
O411       Zr423   2.432       .  S
O411        C413   1.287       .  A
O412       Zr449   2.427       .  S
O412        C413   1.287       .  A
C413        C682   1.479       .  S
O414       Zr426   2.438       .  S
O414        C416   1.287       .  A
O415       Zr450   2.418       .  S
O415        C416   1.285       .  A
C416        C654   1.477       .  S
O417       Zr426   2.431       .  S
O417        C419   1.287       .  A
O418       Zr449   2.427       .  S
O418        C419   1.287       .  A
C419        C585   1.480       .  S
O420       Zr423   2.438       .  S
O420        C422   1.288       .  A
O421       Zr450   2.426       .  S
O421        C422   1.287       .  A
C422        C542   1.483       .  S
Zr423       O424   2.436       .  S
Zr423       O425   2.437       .  S
Zr423       O429   2.373       .  S
Zr423       O430   2.368       .  S
Zr423       O453   2.372       .  S
Zr423       O455   2.372       .  S
O424        H467   0.990       .  S
O425        H466   0.990       .  S
O425        H470   0.990       .  S
Zr426       O427   2.437       .  S
Zr426       O428   2.435       .  S
Zr426       O430   2.368       .  S
Zr426       O429   2.376       .  S
Zr426       O454   2.369       .  S
Zr426       O456   2.368       .  S
O427        H468   0.990       .  S
O427        H471   0.990       .  S
O428        H461   0.990       .  S
O429       Zr449   2.380       .  S
O430       Zr450   2.380       .  S
O430        H457   0.966       .  S
O431       Zr443   2.446       .  S
O431        C433   1.289       .  A
O432       Zr450   2.422       .  S
O432        C433   1.286       .  A
C433        C486   1.483       .  S
O434       Zr446   2.438       .  S
O434        C436   1.287       .  A
O435       Zr449   2.424       .  S
O435        C436   1.287       .  A
C436        C626   1.485       .  S
O437       Zr446   2.439       .  S
O437        C439   1.288       .  A
O438       Zr450   2.422       .  S
O438        C439   1.285       .  A
C439        C501   1.475       .  S
O440       Zr443   2.442       .  S
O440        C442   1.288       .  A
O441       Zr449   2.428       .  S
O441        C442   1.287       .  A
C442        C557   1.481       .  S
Zr443       O444   2.434       .  S
Zr443       O445   2.438       .  S
Zr443       O451   2.369       .  S
Zr443       O452   2.371       .  S
Zr443       O455   2.370       .  S
Zr443       O453   2.375       .  S
O444        H464   0.990       .  S
O444        H469   0.990       .  S
O445        H465   0.990       .  S
Zr446       O447   2.432       .  S
Zr446       O448   2.437       .  S
Zr446       O452   2.369       .  S
Zr446       O451   2.368       .  S
Zr446       O456   2.371       .  S
Zr446       O454   2.370       .  S
O447        H463   0.990       .  S
O448        H462   0.990       .  S
O448        H472   0.990       .  S
Zr449       O452   2.376       .  S
Zr449       O454   2.386       .  S
Zr449       O455   2.385       .  S
Zr450       O451   2.382       .  S
Zr450       O453   2.383       .  S
Zr450       O456   2.382       .  S
O451        H459   0.966       .  S
O454        H458   0.966       .  S
O455        H460   0.966       .  S
C473        C474   1.412       .  A
C473        C478   1.404       .  A
C474        C475   1.404       .  A
C474        N479   1.438       .  S
C475        C476   1.400       .  A
C475        H480   1.084       .  S
C476        C481   1.476       .  S
C476        C477   1.409       .  A
C477        C478   1.406       .  A
C477        N482   1.438       .  S
C478        H483   1.084       .  S
N479        H499   1.046       .  S
N479        H500   1.045       .  S
C481        C484   1.400       .  A
C481        C488   1.408       .  A
N482        H497   1.045       .  S
N482        H498   1.045       .  S
C484        C485   1.398       .  A
C484        H489   1.084       .  S
C485        C486   1.419       .  A
C485        N490   1.433       .  S
C486        C487   1.407       .  A
C487        C488   1.406       .  A
C487        H491   1.084       .  S
C488        N492   1.438       .  S
N490        H493   1.044       .  S
N490        H494   1.045       .  S
N492        H495   1.046       .  S
N492        H496   1.045       .  S
C501        C502   1.413       .  A
C501        C506   1.404       .  A
C502        C503   1.407       .  A
C502        N507   1.438       .  S
C503        C504   1.401       .  A
C503        H508   1.084       .  S
C504        C509   1.473       .  S
C504        C505   1.406       .  A
C505        C506   1.402       .  A
C505        N510   1.438       .  S
C506        H511   1.084       .  S
N507        H527   1.045       .  S
N507        H528   1.046       .  S
C509        C512   1.399       .  A
C509        C516   1.409       .  A
N510        H525   1.046       .  S
N510        H526   1.045       .  S
C512        C513   1.400       .  A
C512        H517   1.084       .  S
C513        C514   1.411       .  A
C513        N518   1.433       .  S
C514        C515   1.405       .  A
C515        C516   1.405       .  A
C515        H519   1.084       .  S
C516        N520   1.438       .  S
N518        H521   1.046       .  S
N518        H522   1.046       .  S
N520        H523   1.046       .  S
N520        H524   1.045       .  S
C529        C530   1.411       .  A
C529        C534   1.404       .  A
C530        C531   1.405       .  A
C530        N535   1.438       .  S
C531        C532   1.401       .  A
C531        H536   1.084       .  S
C532        C537   1.476       .  S
C532        C533   1.409       .  A
C533        C534   1.405       .  A
C533        N538   1.438       .  S
C534        H539   1.084       .  S
N535        H555   1.046       .  S
N535        H556   1.046       .  S
C537        C540   1.401       .  A
C537        C544   1.407       .  A
N538        H553   1.046       .  S
N538        H554   1.044       .  S
C540        C541   1.407       .  A
C540        H545   1.084       .  S
C541        C542   1.414       .  A
C541        N546   1.438       .  S
C542        C543   1.407       .  A
C543        C544   1.404       .  A
C543        H547   1.084       .  S
C544        N548   1.439       .  S
N546        H549   1.046       .  S
N546        H550   1.046       .  S
N548        H551   1.046       .  S
N548        H552   1.045       .  S
C557        C558   1.413       .  A
C557        C562   1.404       .  A
C558        C559   1.406       .  A
C558        N563   1.438       .  S
C559        C560   1.404       .  A
C559        H564   1.084       .  S
C560        C565   1.488       .  S
C560        C561   1.412       .  A
C561        C562   1.406       .  A
C561        N566   1.438       .  S
C562        H567   1.084       .  S
N563        H583   1.045       .  S
N563        H584   1.046       .  S
C565        C568   1.402       .  A
C565        C572   1.409       .  A
N566        H581   1.046       .  S
N566        H582   1.046       .  S
C568        C569   1.406       .  A
C568        H573   1.084       .  S
C569        C570   1.420       .  A
C569        N574   1.437       .  S
C570        C571   1.411       .  A
C571        C572   1.404       .  A
C571        H575   1.083       .  S
C572        N576   1.438       .  S
N574        H577   1.046       .  S
N574        H578   1.044       .  S
N576        H579   1.046       .  S
N576        H580   1.046       .  S
C585        C586   1.414       .  A
C585        C590   1.406       .  A
C586        C587   1.407       .  A
C586        N591   1.438       .  S
C587        C588   1.402       .  A
C587        H592   1.084       .  S
C588        C593   1.477       .  S
C588        C589   1.407       .  A
C589        C590   1.402       .  A
C589        N594   1.438       .  S
C590        H595   1.084       .  S
N591        H611   1.046       .  S
N591        H612   1.046       .  S
C593        C596   1.400       .  A
C593        C600   1.408       .  A
N594        H609   1.046       .  S
N594        H610   1.045       .  S
C596        C597   1.402       .  A
C596        H601   1.084       .  S
C597        C598   1.418       .  A
C597        N602   1.439       .  S
C598        C599   1.404       .  A
C599        C600   1.406       .  A
C599        H603   1.084       .  S
C600        N604   1.438       .  S
N602        H605   1.046       .  S
N602        H606   1.042       .  S
N604        H607   1.046       .  S
N604        H608   1.045       .  S
C613        C614   1.416       .  A
C613        C618   1.406       .  A
C614        C615   1.404       .  A
C614        N619   1.438       .  S
C615        C616   1.400       .  A
C615        H620   1.084       .  S
C616        C621   1.482       .  S
C616        C617   1.410       .  A
C617        C618   1.406       .  A
C617        N622   1.438       .  S
C618        H623   1.084       .  S
N619        H639   1.046       .  S
N619        H640   1.046       .  S
C621        C624   1.400       .  A
C621        C628   1.410       .  A
N622        H637   1.046       .  S
N622        H638   1.045       .  S
C624        C625   1.404       .  A
C624        H629   1.084       .  S
C625        C626   1.417       .  A
C625        N630   1.438       .  S
C626        C627   1.406       .  A
C627        C628   1.406       .  A
C627        H631   1.083       .  S
C628        N632   1.438       .  S
N630        H633   1.045       .  S
N630        H634   1.046       .  S
N632        H635   1.045       .  S
N632        H636   1.046       .  S
C641        C642   1.419       .  A
C641        C646   1.404       .  A
C642        C643   1.401       .  A
C642        N647   1.440       .  S
C643        C644   1.401       .  A
C643        H648   1.084       .  S
C644        C649   1.482       .  S
C644        C645   1.409       .  A
C645        C646   1.407       .  A
C645        N650   1.438       .  S
C646        H651   1.084       .  S
N647        H667   1.042       .  S
N647        H668   1.046       .  S
C649        C652   1.403       .  A
C649        C656   1.409       .  A
N650        H665   1.045       .  S
N650        H666   1.046       .  S
C652        C653   1.406       .  A
C652        H657   1.084       .  S
C653        C654   1.414       .  A
C653        N658   1.439       .  S
C654        C655   1.404       .  A
C655        C656   1.404       .  A
C655        H659   1.084       .  S
C656        N660   1.438       .  S
N658        H661   1.046       .  S
N658        H662   1.046       .  S
N660        H663   1.046       .  S
N660        H664   1.046       .  S
C669        C670   1.418       .  A
C669        C674   1.404       .  A
C670        C671   1.401       .  A
C670        N675   1.437       .  S
C671        C672   1.401       .  A
C671        H676   1.084       .  S
C672        C677   1.477       .  S
C672        C673   1.414       .  A
C673        C674   1.401       .  A
C673        N678   1.438       .  S
C674        H679   1.084       .  S
N675        H695   1.042       .  S
N675        H696   1.045       .  S
C677        C680   1.399       .  A
C677        C684   1.409       .  A
N678        H693   1.046       .  S
N678        H694   1.043       .  S
C680        C681   1.401       .  A
C680        H685   1.084       .  S
C681        C682   1.412       .  A
C681        N686   1.433       .  S
C682        C683   1.405       .  A
C683        C684   1.406       .  A
C683        H687   1.084       .  S
C684        N688   1.437       .  S
N686        H689   1.046       .  S
N686        H690   1.046       .  S
N688        H691   1.046       .  S
N688        H692   1.045       .  S
O697       Zr709   2.441       .  S
O697        C699   1.288       .  A
O698        C699   1.286       .  A
C699        C946   1.471       .  S
O700      Zr2104   2.439       .  S
O700        C702   1.287       .  A
O701      Zr1084   2.418   1_564  S
O701        C702   1.286       .  A
C702        C877   1.471       .  S
O703       Zr712   2.443       .  S
O703        C705   1.288       .  A
O704        C705   1.286       .  A
C705       C1017   1.472       .  S
O706      Zr2101   2.442       .  S
O706        C708   1.288       .  A
O707       Zr736   2.424   1_565  S
O707        C708   1.286       .  A
C708        C989   1.471       .  S
Zr709      O2098   2.441       .  S
Zr709       O710   2.435       .  S
Zr709      O2103   2.438       .  S
Zr709       O715   2.372       .  S
Zr709      O2108   2.371       .  S
Zr709      O2131   2.372   1_565  S
O710        H753   0.990       .  S
O711      Zr2101   2.437       .  S
O711       H2144   0.990   1_455  S
O711       H2148   0.990       .  S
Zr712      O2092   2.442       .  S
Zr712       O713   2.439       .  S
Zr712      O2106   2.434       .  S
Zr712      O2456   2.370       .  S
Zr712      O1063   2.369       .  S
Zr712      O2134   2.374   1_565  S
O713       H2146   0.990       .  S
O713        H757   0.990       .  S
O714      Zr2104   2.434       .  S
O714       H2139   0.990       .  S
O715      Zr1060   2.370       .  S
O716      Zr2101   2.369       .  S
O716      Zr2452   2.367       .  S
O716       Zr736   2.380   1_565  S
O716       H1091   0.965       .  S
O717       Zr729   2.432       .  S
O717        C719   1.285       .  A
O718        C719   1.286       .  A
C719        C862   1.474       .  S
O720      Zr2124   2.446       .  S
O720        C722   1.290       .  A
O721       Zr735   2.423       .  S
O721        C722   1.286       .  A
C722        C918   1.496       .  S
O723       Zr732   2.439       .  S
O723        C725   1.288       .  A
O724        C725   1.287       .  A
C725        C821   1.473       .  S
O726      Zr2121   2.426       .  S
O726        C728   1.285       .  A
O727      Zr1083   2.429       .  S
O727        C728   1.288       .  A
C728        C961   1.482       .  S
Zr729      O2118   2.429   1_455  S
Zr729       O730   2.437       .  S
Zr729       O731   2.436       .  S
Zr729      O1085   2.368       .  S
Zr729      O2478   2.373   1_455  S
Zr729      O2133   2.368   1_455  S
O730        H750   0.990       .  S
O730        H755   0.990       .  S
O731        H751   0.990       .  S
Zr732      O2112   2.444   1_455  S
Zr732       O733   2.433       .  S
Zr732       O734   2.434       .  S
Zr732      O2130   2.369   1_454  S
Zr732       O737   2.373   1_554  S
Zr732      O2132   2.371   1_455  S
O733       H2141   0.990       .  S
O734        H748   0.990       .  S
O734        H758   0.990       .  S
Zr735      O1075   2.435   1_554  S
Zr735       O738   2.376   1_554  S
Zr735       O740   2.386       .  S
Zr735      O1089   2.385   1_554  S
Zr736      O1049   2.426   1_545  S
Zr736       O739   2.383       .  S
Zr736      O1090   2.382       .  S
O737      Zr1077   2.364       .  S
O737       H1093   0.966       .  S
O738      Zr2469   2.371       .  S
O738      Zr2124   2.368   1_556  S
O739      Zr2101   2.373   1_545  S
O740      Zr2124   2.371       .  S
O740        H744   0.966       .  S
O741      Zr2121   2.368       .  S
O741      Zr1083   2.385       .  S
O741        H746   0.966       .  S
O742      Zr2104   2.375   1_545  S
O742      Zr1084   2.384   1_554  S
H743       O1064   0.966       .  S
H745       O1085   0.966       .  S
H747       O2106   0.990       .  S
H749       O2125   0.990       .  S
H752       O2103   0.990       .  S
H754       O2105   0.990       .  S
H756       O2103   0.990       .  S
O759       Zr771   2.435       .  S
O759        C761   1.287       .  A
O760       Zr797   2.432       .  S
O760        C761   1.288       .  A
C761       C1030   1.483       .  S
O762       Zr774   2.435       .  S
O762        C764   1.287       .  A
O763       Zr798   2.421       .  S
O763        C764   1.286       .  A
C764       C1002   1.474       .  S
O765       Zr774   2.433       .  S
O765        C767   1.287       .  A
O766       Zr797   2.420       .  S
O766        C767   1.286       .  A
C767        C933   1.479       .  S
O768       Zr771   2.439       .  S
O768        C770   1.288       .  A
O769       Zr798   2.424       .  S
O769        C770   1.286       .  A
C770        C890   1.481       .  S
Zr771       O772   2.437       .  S
Zr771       O773   2.436       .  S
Zr771       O777   2.371       .  S
Zr771       O778   2.365       .  S
Zr771       O801   2.372       .  S
Zr771       O803   2.375       .  S
O772        H815   0.990       .  S
O773        H814   0.990       .  S
O773        H818   0.990       .  S
Zr774       O775   2.436       .  S
Zr774       O776   2.434       .  S
Zr774       O778   2.373       .  S
Zr774       O777   2.371       .  S
Zr774       O802   2.367       .  S
Zr774       O804   2.369       .  S
O775        H816   0.990       .  S
O775        H819   0.990       .  S
O776        H809   0.990       .  S
O777       Zr797   2.379       .  S
O778       Zr798   2.383       .  S
O778        H805   0.966       .  S
O779       Zr791   2.450       .  S
O779        C781   1.290       .  A
O780       Zr798   2.422       .  S
O780        C781   1.286       .  A
C781        C834   1.482       .  S
O782       Zr794   2.438       .  S
O782        C784   1.288       .  A
O783       Zr797   2.427       .  S
O783        C784   1.287       .  A
C784        C974   1.485       .  S
O785       Zr794   2.441       .  S
O785        C787   1.289       .  A
O786       Zr798   2.420       .  S
O786        C787   1.285       .  A
C787        C849   1.475       .  S
O788       Zr791   2.450       .  S
O788        C790   1.290       .  A
O789       Zr797   2.422       .  S
O789        C790   1.287       .  A
C790        C905   1.485       .  S
Zr791       O792   2.436       .  S
Zr791       O793   2.434       .  S
Zr791       O799   2.368       .  S
Zr791       O800   2.371       .  S
Zr791       O803   2.373       .  S
Zr791       O801   2.376       .  S
O792        H812   0.990       .  S
O792        H817   0.990       .  S
O793        H813   0.990       .  S
Zr794       O795   2.434       .  S
Zr794       O796   2.437       .  S
Zr794       O800   2.370       .  S
Zr794       O799   2.367       .  S
Zr794       O804   2.373       .  S
Zr794       O802   2.374       .  S
O795        H811   0.990       .  S
O796        H810   0.990       .  S
O796        H820   0.990       .  S
Zr797       O800   2.379       .  S
Zr797       O802   2.386       .  S
Zr797       O803   2.388       .  S
Zr798       O799   2.382       .  S
Zr798       O801   2.381       .  S
Zr798       O804   2.382       .  S
O799        H807   0.966       .  S
O802        H806   0.966       .  S
O803        H808   0.966       .  S
C821        C822   1.412       .  A
C821        C826   1.402       .  A
C822        C823   1.403       .  A
C822        N827   1.438       .  S
C823        C824   1.399       .  A
C823        H828   1.084       .  S
C824        C829   1.476       .  S
C824        C825   1.410       .  A
C825        C826   1.406       .  A
C825        N830   1.437       .  S
C826        H831   1.084       .  S
N827        H847   1.046       .  S
N827        H848   1.046       .  S
C829        C832   1.399       .  A
C829        C836   1.407       .  A
N830        H845   1.046       .  S
N830        H846   1.045       .  S
C832        C833   1.398       .  A
C832        H837   1.084       .  S
C833        C834   1.419       .  A
C833        N838   1.433       .  S
C834        C835   1.406       .  A
C835        C836   1.406       .  A
C835        H839   1.084       .  S
C836        N840   1.438       .  S
N838        H841   1.044       .  S
N838        H842   1.045       .  S
N840        H843   1.046       .  S
N840        H844   1.045       .  S
C849        C850   1.413       .  A
C849        C854   1.403       .  A
C850        C851   1.407       .  A
C850        N855   1.438       .  S
C851        C852   1.402       .  A
C851        H856   1.084       .  S
C852        C857   1.474       .  S
C852        C853   1.406       .  A
C853        C854   1.401       .  A
C853        N858   1.438       .  S
C854        H859   1.084       .  S
N855        H875   1.045       .  S
N855        H876   1.046       .  S
C857        C860   1.400       .  A
C857        C864   1.409       .  A
N858        H873   1.046       .  S
N858        H874   1.045       .  S
C860        C861   1.402       .  A
C860        H865   1.084       .  S
C861        C862   1.410       .  A
C861        N866   1.433       .  S
C862        C863   1.404       .  A
C863        C864   1.404       .  A
C863        H867   1.084       .  S
C864        N868   1.438       .  S
N866        H869   1.046       .  S
N866        H870   1.046       .  S
N868        H871   1.046       .  S
N868        H872   1.045       .  S
C877        C878   1.411       .  A
C877        C882   1.404       .  A
C878        C879   1.404       .  A
C878        N883   1.438       .  S
C879        C880   1.400       .  A
C879        H884   1.084       .  S
C880        C885   1.472       .  S
C880        C881   1.408       .  A
C881        C882   1.403       .  A
C881        N886   1.438       .  S
C882        H887   1.084       .  S
N883        H903   1.046       .  S
N883        H904   1.046       .  S
C885        C888   1.400       .  A
C885        C892   1.406       .  A
N886        H901   1.046       .  S
N886        H902   1.045       .  S
C888        C889   1.405       .  A
C888        H893   1.084       .  S
C889        C890   1.414       .  A
C889        N894   1.438       .  S
C890        C891   1.407       .  A
C891        C892   1.403       .  A
C891        H895   1.084       .  S
C892        N896   1.438       .  S
N894        H897   1.046       .  S
N894        H898   1.046       .  S
N896        H899   1.046       .  S
N896        H900   1.045       .  S
C905        C906   1.415       .  A
C905        C910   1.406       .  A
C906        C907   1.406       .  A
C906        N911   1.439       .  S
C907        C908   1.403       .  A
C907        H912   1.084       .  S
C908        C913   1.487       .  S
C908        C909   1.410       .  A
C909        C910   1.407       .  A
C909        N914   1.438       .  S
C910        H915   1.084       .  S
N911        H931   1.046       .  S
N911        H932   1.046       .  S
C913        C916   1.401       .  A
C913        C920   1.408       .  A
N914        H929   1.046       .  S
N914        H930   1.046       .  S
C916        C917   1.407       .  A
C916        H921   1.084       .  S
C917        C918   1.420       .  A
C917        N922   1.437       .  S
C918        C919   1.410       .  A
C919        C920   1.406       .  A
C919        H923   1.083       .  S
C920        N924   1.438       .  S
N922        H925   1.046       .  S
N922        H926   1.044       .  S
N924        H927   1.046       .  S
N924        H928   1.046       .  S
C933        C934   1.414       .  A
C933        C938   1.406       .  A
C934        C935   1.407       .  A
C934        N939   1.438       .  S
C935        C936   1.401       .  A
C935        H940   1.084       .  S
C936        C941   1.474       .  S
C936        C937   1.406       .  A
C937        C938   1.402       .  A
C937        N942   1.438       .  S
C938        H943   1.084       .  S
N939        H959   1.046       .  S
N939        H960   1.046       .  S
C941        C944   1.399       .  A
C941        C948   1.408       .  A
N942        H957   1.046       .  S
N942        H958   1.045       .  S
C944        C945   1.400       .  A
C944        H949   1.084       .  S
C945        C946   1.418       .  A
C945        N950   1.440       .  S
C946        C947   1.404       .  A
C947        C948   1.405       .  A
C947        H951   1.084       .  S
C948        N952   1.438       .  S
N950        H953   1.046       .  S
N950        H954   1.042       .  S
N952        H955   1.046       .  S
N952        H956   1.045       .  S
C961        C962   1.416       .  A
C961        C966   1.406       .  A
C962        C963   1.402       .  A
C962        N967   1.438       .  S
C963        C964   1.399       .  A
C963        H968   1.084       .  S
C964        C969   1.480       .  S
C964        C965   1.410       .  A
C965        C966   1.406       .  A
C965        N970   1.438       .  S
C966        H971   1.084       .  S
N967        H987   1.046       .  S
N967        H988   1.046       .  S
C969        C972   1.399       .  A
C969        C976   1.410       .  A
N970        H985   1.046       .  S
N970        H986   1.046       .  S
C972        C973   1.403       .  A
C972        H977   1.084       .  S
C973        C974   1.417       .  A
C973        N978   1.438       .  S
C974        C975   1.406       .  A
C975        C976   1.406       .  A
C975        H979   1.083       .  S
C976        N980   1.438       .  S
N978        H981   1.045       .  S
N978        H982   1.046       .  S
N980        H983   1.045       .  S
N980        H984   1.046       .  S
C989        C990   1.419       .  A
C989        C994   1.402       .  A
C990        C991   1.400       .  A
C990        N995   1.440       .  S
C991        C992   1.400       .  A
C991        H996   1.084       .  S
C992        C997   1.478       .  S
C992        C993   1.409       .  A
C993        C994   1.405       .  A
C993        N998   1.438       .  S
C994        H999   1.084       .  S
N995       H1015   1.042       .  S
N995       H1016   1.046       .  S
C997       C1000   1.402       .  A
C997       C1004   1.409       .  A
N998       H1013   1.045       .  S
N998       H1014   1.045       .  S
C1000      C1001   1.405       .  A
C1000      H1005   1.084       .  S
C1001      C1002   1.412       .  A
C1001      N1006   1.439       .  S
C1002      C1003   1.404       .  A
C1003      C1004   1.403       .  A
C1003      H1007   1.084       .  S
C1004      N1008   1.438       .  S
N1006      H1009   1.046       .  S
N1006      H1010   1.046       .  S
N1008      H1011   1.046       .  S
N1008      H1012   1.046       .  S
C1017      C1018   1.415       .  A
C1017      C1022   1.402       .  A
C1018      C1019   1.402       .  A
C1018      N1023   1.438       .  S
C1019      C1020   1.403       .  A
C1019      H1024   1.084       .  S
C1020      C1025   1.482       .  S
C1020      C1021   1.417       .  A
C1021      C1022   1.401       .  A
C1021      N1026   1.439       .  S
C1022      H1027   1.085       .  S
N1023      H1043   1.043       .  S
N1023      H1044   1.045       .  S
C1025      C1028   1.399       .  A
C1025      C1032   1.411       .  A
N1026      H1041   1.046       .  S
N1026      H1042   1.043       .  S
C1028      C1029   1.401       .  A
C1028      H1033   1.084       .  S
C1029      C1030   1.413       .  A
C1029      N1034   1.432       .  S
C1030      C1031   1.406       .  A
C1031      C1032   1.409       .  A
C1031      H1035   1.084       .  S
C1032      N1036   1.437       .  S
N1034      H1037   1.046       .  S
N1034      H1038   1.045       .  S
N1036      H1039   1.046       .  S
N1036      H1040   1.046       .  S
O1045     Zr1057   2.445       .  S
O1045      C1047   1.289       .  A
O1046      C1047   1.287       .  A
C1047      C1294   1.474       .  S
O1048     Zr2452   2.433       .  S
O1048      C1050   1.286       .  A
O1049      C1050   1.287       .  A
C1050      C1225   1.473       .  S
O1051     Zr1060   2.432       .  S
O1051      C1053   1.286       .  A
O1052      C1053   1.289       .  A
C1053      C1365   1.478       .  S
O1054     Zr2449   2.440       .  S
O1054      C1056   1.288       .  A
O1055     Zr1084   2.427   1_565  S
O1055      C1056   1.286       .  A
C1056      C1337   1.470       .  S
Zr1057     O2446   2.449       .  S
Zr1057     O1058   2.434       .  S
Zr1057     O2451   2.436       .  S
Zr1057     O1063   2.372   1_556  S
Zr1057     O2456   2.370   1_556  S
Zr1057     O2479   2.374   1_565  S
O1058      H1101   0.990       .  S
O1059     Zr2449   2.437       .  S
O1059      H2492   0.990   1_455  S
O1059      H2496   0.990   1_455  S
Zr1060     O2440   2.437       .  S
Zr1060     O1061   2.434       .  S
Zr1060     O2454   2.433       .  S
Zr1060     O2108   2.364       .  S
Zr1060     O2482   2.372   1_565  S
O1061      H2494   0.990       .  S
O1061      H1105   0.990       .  S
O1062     Zr2452   2.434       .  S
O1062      H2487   0.990       .  S
O1064     Zr2449   2.372   1_554  S
O1064     Zr2104   2.368       .  S
O1064     Zr1084   2.383   1_564  S
O1065     Zr1077   2.434       .  S
O1065      C1067   1.286       .  A
O1066      C1067   1.287       .  A
C1067      C1210   1.478       .  S
O1068     Zr2472   2.442       .  S
O1068      C1070   1.290       .  A
O1069     Zr1083   2.420       .  S
O1069      C1070   1.285       .  A
C1070      C1266   1.496       .  S
O1071     Zr1080   2.436       .  S
O1071      C1073   1.286       .  A
O1072      C1073   1.287       .  A
C1073      C1169   1.473       .  S
O1074     Zr2469   2.424       .  S
O1074      C1076   1.285       .  A
O1075      C1076   1.289       .  A
C1076      C1309   1.485       .  S
Zr1077     O2466   2.425   1_455  S
Zr1077     O1078   2.437       .  S
Zr1077     O1079   2.435   1_455  S
Zr1077     O2130   2.371   1_455  S
Zr1077     O2481   2.366   1_455  S
O1078      H1098   0.990       .  S
O1078      H1103   0.990       .  S
O1079      H1099   0.990   1_655  S
Zr1080     O2460   2.439   1_455  S
Zr1080     O1081   2.435       .  S
Zr1080     O1082   2.433       .  S
Zr1080     O2478   2.373   1_455  S
Zr1080     O1085   2.370       .  S
Zr1080     O2480   2.371   1_455  S
O1081      H2489   0.990       .  S
O1082      H1096   0.990       .  S
O1082      H1106   0.990       .  S
Zr1083     O1086   2.379       .  S
Zr1083     O1088   2.386       .  S
Zr1084     O1087   2.383       .  S
O1086     Zr2121   2.370       .  S
O1086     Zr2472   2.368       .  S
O1087     Zr2449   2.373   1_545  S
O1088     Zr2472   2.370       .  S
O1088      H1092   0.966       .  S
O1089     Zr2469   2.367       .  S
O1089      H1094   0.966       .  S
O1090     Zr2452   2.371   1_545  S
H1095      O2454   0.990       .  S
H1097      O2473   0.990       .  S
H1100      O2451   0.990       .  S
H1102      O2453   0.990       .  S
H1104      O2451   0.990       .  S
O1107     Zr1119   2.439       .  S
O1107      C1109   1.288       .  A
O1108     Zr1145   2.428       .  S
O1108      C1109   1.288       .  A
C1109      C1378   1.481       .  S
O1110     Zr1122   2.442       .  S
O1110      C1112   1.288       .  A
O1111     Zr1146   2.417       .  S
O1111      C1112   1.285       .  A
C1112      C1350   1.477       .  S
O1113     Zr1122   2.433       .  S
O1113      C1115   1.287       .  A
O1114     Zr1145   2.426       .  S
O1114      C1115   1.287       .  A
C1115      C1281   1.481       .  S
O1116     Zr1119   2.442       .  S
O1116      C1118   1.289       .  A
O1117     Zr1146   2.422       .  S
O1117      C1118   1.286       .  A
C1118      C1238   1.484       .  S
Zr1119     O1120   2.434       .  S
Zr1119     O1121   2.438       .  S
Zr1119     O1125   2.375       .  S
Zr1119     O1126   2.370       .  S
Zr1119     O1149   2.372       .  S
Zr1119     O1151   2.370       .  S
O1120      H1163   0.990       .  S
O1121      H1162   0.990       .  S
O1121      H1166   0.990       .  S
Zr1122     O1123   2.437       .  S
Zr1122     O1124   2.436       .  S
Zr1122     O1126   2.372       .  S
Zr1122     O1125   2.377       .  S
Zr1122     O1150   2.369       .  S
Zr1122     O1152   2.368       .  S
O1123      H1164   0.990       .  S
O1123      H1167   0.990       .  S
O1124      H1157   0.990       .  S
O1125     Zr1145   2.381       .  S
O1126     Zr1146   2.384       .  S
O1126      H1153   0.966       .  S
O1127     Zr1139   2.447       .  S
O1127      C1129   1.289       .  A
O1128     Zr1146   2.421       .  S
O1128      C1129   1.285       .  A
C1129      C1182   1.481       .  S
O1130     Zr1142   2.436       .  S
O1130      C1132   1.287       .  A
O1131     Zr1145   2.425       .  S
O1131      C1132   1.288       .  A
C1132      C1322   1.486       .  S
O1133     Zr1142   2.438       .  S
O1133      C1135   1.288       .  A
O1134     Zr1146   2.428       .  S
O1134      C1135   1.287       .  A
C1135      C1197   1.478       .  S
O1136     Zr1139   2.442       .  S
O1136      C1138   1.289       .  A
O1137     Zr1145   2.426       .  S
O1137      C1138   1.287       .  A
C1138      C1253   1.481       .  S
Zr1139     O1140   2.436       .  S
Zr1139     O1141   2.433       .  S
Zr1139     O1147   2.370       .  S
Zr1139     O1148   2.371       .  S
Zr1139     O1151   2.369       .  S
Zr1139     O1149   2.371       .  S
O1140      H1160   0.990       .  S
O1140      H1165   0.990       .  S
O1141      H1161   0.990       .  S
Zr1142     O1143   2.430       .  S
Zr1142     O1144   2.434       .  S
Zr1142     O1148   2.366       .  S
Zr1142     O1147   2.364       .  S
Zr1142     O1152   2.372       .  S
Zr1142     O1150   2.371       .  S
O1143      H1159   0.990       .  S
O1144      H1158   0.990       .  S
O1144      H1168   0.990       .  S
Zr1145     O1148   2.375       .  S
Zr1145     O1150   2.387       .  S
Zr1145     O1151   2.386       .  S
Zr1146     O1147   2.379       .  S
Zr1146     O1149   2.384       .  S
Zr1146     O1152   2.382       .  S
O1147      H1155   0.966       .  S
O1150      H1154   0.966       .  S
O1151      H1156   0.966       .  S
C1169      C1170   1.412       .  A
C1169      C1174   1.403       .  A
C1170      C1171   1.404       .  A
C1170      N1175   1.438       .  S
C1171      C1172   1.399       .  A
C1171      H1176   1.084       .  S
C1172      C1177   1.474       .  S
C1172      C1173   1.408       .  A
C1173      C1174   1.405       .  A
C1173      N1178   1.438       .  S
C1174      H1179   1.084       .  S
N1175      H1195   1.046       .  S
N1175      H1196   1.046       .  S
C1177      C1180   1.398       .  A
C1177      C1184   1.407       .  A
N1178      H1193   1.046       .  S
N1178      H1194   1.045       .  S
C1180      C1181   1.397       .  A
C1180      H1185   1.084       .  S
C1181      C1182   1.419       .  A
C1181      N1186   1.433       .  S
C1182      C1183   1.407       .  A
C1183      C1184   1.406       .  A
C1183      H1187   1.084       .  S
C1184      N1188   1.438       .  S
N1186      H1189   1.044       .  S
N1186      H1190   1.045       .  S
N1188      H1191   1.046       .  S
N1188      H1192   1.045       .  S
C1197      C1198   1.413       .  A
C1197      C1202   1.404       .  A
C1198      C1199   1.409       .  A
C1198      N1203   1.438       .  S
C1199      C1200   1.402       .  A
C1199      H1204   1.084       .  S
C1200      C1205   1.477       .  S
C1200      C1201   1.407       .  A
C1201      C1202   1.403       .  A
C1201      N1206   1.438       .  S
C1202      H1207   1.084       .  S
N1203      H1223   1.045       .  S
N1203      H1224   1.046       .  S
C1205      C1208   1.400       .  A
C1205      C1212   1.409       .  A
N1206      H1221   1.046       .  S
N1206      H1222   1.045       .  S
C1208      C1209   1.402       .  A
C1208      H1213   1.084       .  S
C1209      C1210   1.412       .  A
C1209      N1214   1.433       .  S
C1210      C1211   1.405       .  A
C1211      C1212   1.405       .  A
C1211      H1215   1.084       .  S
C1212      N1216   1.438       .  S
N1214      H1217   1.046       .  S
N1214      H1218   1.045       .  S
N1216      H1219   1.046       .  S
N1216      H1220   1.045       .  S
C1225      C1226   1.412       .  A
C1225      C1230   1.403       .  A
C1226      C1227   1.405       .  A
C1226      N1231   1.438       .  S
C1227      C1228   1.401       .  A
C1227      H1232   1.084       .  S
C1228      C1233   1.475       .  S
C1228      C1229   1.409       .  A
C1229      C1230   1.404       .  A
C1229      N1234   1.438       .  S
C1230      H1235   1.084       .  S
N1231      H1251   1.046       .  S
N1231      H1252   1.046       .  S
C1233      C1236   1.400       .  A
C1233      C1240   1.406       .  A
N1234      H1249   1.046       .  S
N1234      H1250   1.044       .  S
C1236      C1237   1.406       .  A
C1236      H1241   1.084       .  S
C1237      C1238   1.415       .  A
C1237      N1242   1.438       .  S
C1238      C1239   1.407       .  A
C1239      C1240   1.403       .  A
C1239      H1243   1.084       .  S
C1240      N1244   1.439       .  S
N1242      H1245   1.046       .  S
N1242      H1246   1.046       .  S
N1244      H1247   1.046       .  S
N1244      H1248   1.044       .  S
C1253      C1254   1.413       .  A
C1253      C1258   1.404       .  A
C1254      C1255   1.406       .  A
C1254      N1259   1.438       .  S
C1255      C1256   1.405       .  A
C1255      H1260   1.084       .  S
C1256      C1261   1.490       .  S
C1256      C1257   1.412       .  A
C1257      C1258   1.406       .  A
C1257      N1262   1.438       .  S
C1258      H1263   1.084       .  S
N1259      H1279   1.046       .  S
N1259      H1280   1.046       .  S
C1261      C1264   1.403       .  A
C1261      C1268   1.409       .  A
N1262      H1277   1.046       .  S
N1262      H1278   1.046       .  S
C1264      C1265   1.407       .  A
C1264      H1269   1.084       .  S
C1265      C1266   1.421       .  A
C1265      N1270   1.438       .  S
C1266      C1267   1.410       .  A
C1267      C1268   1.404       .  A
C1267      H1271   1.083       .  S
C1268      N1272   1.438       .  S
N1270      H1273   1.046       .  S
N1270      H1274   1.044       .  S
N1272      H1275   1.046       .  S
N1272      H1276   1.046       .  S
C1281      C1282   1.414       .  A
C1281      C1286   1.406       .  A
C1282      C1283   1.408       .  A
C1282      N1287   1.438       .  S
C1283      C1284   1.402       .  A
C1283      H1288   1.084       .  S
C1284      C1289   1.477       .  S
C1284      C1285   1.406       .  A
C1285      C1286   1.402       .  A
C1285      N1290   1.438       .  S
C1286      H1291   1.084       .  S
N1287      H1307   1.046       .  S
N1287      H1308   1.046       .  S
C1289      C1292   1.401       .  A
C1289      C1296   1.407       .  A
N1290      H1305   1.046       .  S
N1290      H1306   1.045       .  S
C1292      C1293   1.402       .  A
C1292      H1297   1.084       .  S
C1293      C1294   1.418       .  A
C1293      N1298   1.439       .  S
C1294      C1295   1.404       .  A
C1295      C1296   1.406       .  A
C1295      H1299   1.084       .  S
C1296      N1300   1.438       .  S
N1298      H1301   1.046       .  S
N1298      H1302   1.043       .  S
N1300      H1303   1.046       .  S
N1300      H1304   1.045       .  S
C1309      C1310   1.418       .  A
C1309      C1314   1.406       .  A
C1310      C1311   1.403       .  A
C1310      N1315   1.439       .  S
C1311      C1312   1.400       .  A
C1311      H1316   1.084       .  S
C1312      C1317   1.483       .  S
C1312      C1313   1.411       .  A
C1313      C1314   1.407       .  A
C1313      N1318   1.438       .  S
C1314      H1319   1.084       .  S
N1315      H1335   1.046       .  S
N1315      H1336   1.046       .  S
C1317      C1320   1.400       .  A
C1317      C1324   1.410       .  A
N1318      H1333   1.046       .  S
N1318      H1334   1.046       .  S
C1320      C1321   1.405       .  A
C1320      H1325   1.084       .  S
C1321      C1322   1.417       .  A
C1321      N1326   1.438       .  S
C1322      C1323   1.405       .  A
C1323      C1324   1.405       .  A
C1323      H1327   1.083       .  S
C1324      N1328   1.438       .  S
N1326      H1329   1.045       .  S
N1326      H1330   1.046       .  S
N1328      H1331   1.046       .  S
N1328      H1332   1.046       .  S
C1337      C1338   1.418       .  A
C1337      C1342   1.402       .  A
C1338      C1339   1.400       .  A
C1338      N1343   1.440       .  S
C1339      C1340   1.400       .  A
C1339      H1344   1.084       .  S
C1340      C1345   1.478       .  S
C1340      C1341   1.409       .  A
C1341      C1342   1.405       .  A
C1341      N1346   1.437       .  S
C1342      H1347   1.084       .  S
N1343      H1363   1.042       .  S
N1343      H1364   1.046       .  S
C1345      C1348   1.402       .  A
C1345      C1352   1.408       .  A
N1346      H1361   1.046       .  S
N1346      H1362   1.046       .  S
C1348      C1349   1.405       .  A
C1348      H1353   1.084       .  S
C1349      C1350   1.415       .  A
C1349      N1354   1.439       .  S
C1350      C1351   1.404       .  A
C1351      C1352   1.403       .  A
C1351      H1355   1.084       .  S
C1352      N1356   1.438       .  S
N1354      H1357   1.046       .  S
N1354      H1358   1.046       .  S
N1356      H1359   1.046       .  S
N1356      H1360   1.046       .  S
C1365      C1366   1.417       .  A
C1365      C1370   1.406       .  A
C1366      C1367   1.401       .  A
C1366      N1371   1.437       .  S
C1367      C1368   1.401       .  A
C1367      H1372   1.084       .  S
C1368      C1373   1.478       .  S
C1368      C1369   1.414       .  A
C1369      C1370   1.401       .  A
C1369      N1374   1.439       .  S
C1370      H1375   1.084       .  S
N1371      H1391   1.042       .  S
N1371      H1392   1.045       .  S
C1373      C1376   1.400       .  A
C1373      C1380   1.409       .  A
N1374      H1389   1.046       .  S
N1374      H1390   1.043       .  S
C1376      C1377   1.402       .  A
C1376      H1381   1.084       .  S
C1377      C1378   1.413       .  A
C1377      N1382   1.433       .  S
C1378      C1379   1.405       .  A
C1379      C1380   1.406       .  A
C1379      H1383   1.084       .  S
C1380      N1384   1.437       .  S
N1382      H1385   1.046       .  S
N1382      H1386   1.045       .  S
N1384      H1387   1.046       .  S
N1384      H1388   1.045       .  S
O1393     Zr1405   2.444   1_655  S
O1393      C1395   1.289       .  A
O1394     Zr2475   2.424       .  S
O1394      C1395   1.286       .  A
C1395      C1642   1.476       .  S
O1396      C1398   1.286       .  A
O1397     Zr1780   2.422   1_554  S
O1397      C1398   1.286       .  A
C1398      C1573   1.470       .  S
O1399     Zr1408   2.442   1_655  S
O1399      C1401   1.289       .  A
O1400     Zr2127   2.432       .  S
O1400      C1401   1.288       .  A
C1401      C1713   1.483       .  S
O1402      C1404   1.287       .  A
O1403     Zr1432   2.429       .  S
O1403      C1404   1.287       .  A
C1404      C1685   1.472       .  S
Zr1405     O1406   2.435       .  S
Zr1405     O1411   2.370   1_455  S
Zr1405     O2133   2.374   1_455  S
O1406      H1449   0.990       .  S
Zr1408     O1409   2.438       .  S
Zr1408     O1759   2.371   1_455  S
Zr1408     O2132   2.371   1_455  S
O1409      H1453   0.990       .  S
O1411     Zr1756   2.369   1_655  S
O1411     Zr2475   2.377       .  S
O1412     Zr1432   2.379       .  S
O1412      H1787   0.965       .  S
O1413     Zr1425   2.437       .  S
O1413      C1415   1.287       .  A
O1414     Zr2128   2.419       .  S
O1414      C1415   1.286       .  A
C1415      C1558   1.475       .  S
O1416      C1418   1.289       .  A
O1417     Zr1431   2.432   1_554  S
O1417      C1418   1.288       .  A
C1418      C1614   1.492       .  S
O1419     Zr1428   2.437       .  S
O1419      C1421   1.287       .  A
O1420     Zr2476   2.421   1_554  S
O1420      C1421   1.286       .  A
C1421      C1517   1.472       .  S
O1422      C1424   1.286       .  A
O1423     Zr1779   2.429       .  S
O1423      C1424   1.288       .  A
C1424      C1657   1.484       .  S
Zr1425     O1426   2.435       .  S
Zr1425     O1427   2.434       .  S
Zr1425     O1781   2.366       .  S
Zr1425     O2131   2.371       .  S
O1426      H1446   0.990       .  S
O1426      H1451   0.990       .  S
O1427      H1447   0.990       .  S
Zr1428     O1429   2.433       .  S
Zr1428     O1430   2.433       .  S
Zr1428     O1433   2.369   1_554  S
Zr1428     O2134   2.371       .  S
O1430      H1444   0.990       .  S
O1430      H1454   0.990       .  S
Zr1431     O2438   2.429   1_545  S
Zr1431     O2096   2.424   1_546  S
Zr1431     O1771   2.424       .  S
Zr1431     O2455   2.377   1_546  S
Zr1431     O1434   2.378       .  S
Zr1431     O1436   2.382   1_556  S
Zr1431     O1785   2.385       .  S
Zr1432     O1745   2.422       .  S
Zr1432     O2110   2.421       .  S
Zr1432     O2464   2.417       .  S
Zr1432     O2477   2.384       .  S
Zr1432     O1435   2.383       .  S
Zr1432     O1786   2.383       .  S
O1433     Zr1773   2.365       .  S
O1433     Zr2476   2.382       .  S
O1433      H1789   0.966       .  S
O1435     Zr2121   2.374       .  S
O1436     Zr2104   2.369   1_645  S
O1436      H1440   0.966       .  S
O1437     Zr2101   2.374   1_655  S
O1437     Zr1779   2.388   1_565  S
O1437      H1442   0.966       .  S
O1438     Zr2124   2.374       .  S
O1438     Zr1780   2.387   1_554  S
H1439      O1760   0.966       .  S
H1441      O1781   0.966       .  S
O1455     Zr1467   2.430       .  S
O1455      C1457   1.286       .  A
O1456     Zr1493   2.429       .  S
O1456      C1457   1.288       .  A
C1457      C1726   1.481       .  S
O1458     Zr1470   2.435       .  S
O1458      C1460   1.286       .  A
O1459     Zr1494   2.423       .  S
O1459      C1460   1.286       .  A
C1460      C1698   1.479       .  S
O1461     Zr1470   2.436       .  S
O1461      C1463   1.288       .  A
O1462     Zr1493   2.426       .  S
O1462      C1463   1.287       .  A
C1463      C1629   1.481       .  S
O1464     Zr1467   2.435       .  S
O1464      C1466   1.287       .  A
O1465     Zr1494   2.424       .  S
O1465      C1466   1.287       .  A
C1466      C1586   1.480       .  S
Zr1467     O1468   2.436       .  S
Zr1467     O1469   2.434       .  S
Zr1467     O1473   2.371       .  S
Zr1467     O1474   2.366       .  S
Zr1467     O1497   2.368       .  S
Zr1467     O1499   2.372       .  S
O1468      H1511   0.990       .  S
O1469      H1510   0.990       .  S
O1469      H1514   0.990       .  S
Zr1470     O1471   2.435       .  S
Zr1470     O1472   2.436       .  S
Zr1470     O1474   2.372       .  S
Zr1470     O1473   2.370       .  S
Zr1470     O1498   2.370       .  S
Zr1470     O1500   2.371       .  S
O1471      H1512   0.990       .  S
O1471      H1515   0.990       .  S
O1472      H1505   0.990       .  S
O1473     Zr1493   2.379       .  S
O1474     Zr1494   2.380       .  S
O1474      H1501   0.966       .  S
O1475     Zr1487   2.443       .  S
O1475      C1477   1.288       .  A
O1476     Zr1494   2.425       .  S
O1476      C1477   1.286       .  A
C1477      C1530   1.480       .  S
O1478     Zr1490   2.432       .  S
O1478      C1480   1.287       .  A
O1479     Zr1493   2.429       .  S
O1479      C1480   1.288       .  A
C1480      C1670   1.486       .  S
O1481     Zr1490   2.443       .  S
O1481      C1483   1.289       .  A
O1482     Zr1494   2.413       .  S
O1482      C1483   1.284       .  A
C1483      C1545   1.472       .  S
O1484     Zr1487   2.447       .  S
O1484      C1486   1.290       .  A
O1485     Zr1493   2.429       .  S
O1485      C1486   1.288       .  A
C1486      C1601   1.492       .  S
Zr1487     O1488   2.435       .  S
Zr1487     O1489   2.435       .  S
Zr1487     O1495   2.371       .  S
Zr1487     O1496   2.372       .  S
Zr1487     O1499   2.369       .  S
Zr1487     O1497   2.372       .  S
O1488      H1508   0.990       .  S
O1488      H1513   0.990       .  S
O1489      H1509   0.990       .  S
Zr1490     O1491   2.434       .  S
Zr1490     O1492   2.435       .  S
Zr1490     O1496   2.372       .  S
Zr1490     O1495   2.365       .  S
Zr1490     O1500   2.370       .  S
Zr1490     O1498   2.372       .  S
O1491      H1507   0.990       .  S
O1492      H1506   0.990       .  S
O1492      H1516   0.990       .  S
Zr1493     O1496   2.380       .  S
Zr1493     O1498   2.388       .  S
Zr1493     O1499   2.386       .  S
Zr1494     O1495   2.384       .  S
Zr1494     O1497   2.378       .  S
Zr1494     O1500   2.383       .  S
O1495      H1503   0.966       .  S
O1498      H1502   0.966       .  S
O1499      H1504   0.966       .  S
C1517      C1518   1.412       .  A
C1517      C1522   1.403       .  A
C1518      C1519   1.402       .  A
C1518      N1523   1.438       .  S
C1519      C1520   1.398       .  A
C1519      H1524   1.084       .  S
C1520      C1525   1.472       .  S
C1520      C1521   1.409       .  A
C1521      C1522   1.405       .  A
C1521      N1526   1.437       .  S
C1522      H1527   1.084       .  S
N1523      H1543   1.046       .  S
N1523      H1544   1.046       .  S
C1525      C1528   1.399       .  A
C1525      C1532   1.406       .  A
N1526      H1541   1.046       .  S
N1526      H1542   1.045       .  S
C1528      C1529   1.397       .  A
C1528      H1533   1.084       .  S
C1529      C1530   1.418       .  A
C1529      N1534   1.433       .  S
C1530      C1531   1.407       .  A
C1531      C1532   1.406       .  A
C1531      H1535   1.084       .  S
C1532      N1536   1.438       .  S
N1534      H1537   1.044       .  S
N1534      H1538   1.045       .  S
N1536      H1539   1.045       .  S
N1536      H1540   1.045       .  S
C1545      C1546   1.413       .  A
C1545      C1550   1.403       .  A
C1546      C1547   1.406       .  A
C1546      N1551   1.438       .  S
C1547      C1548   1.401       .  A
C1547      H1552   1.084       .  S
C1548      C1553   1.472       .  S
C1548      C1549   1.406       .  A
C1549      C1550   1.401       .  A
C1549      N1554   1.438       .  S
C1550      H1555   1.084       .  S
N1551      H1571   1.045       .  S
N1551      H1572   1.046       .  S
C1553      C1556   1.399       .  A
C1553      C1560   1.408       .  A
N1554      H1569   1.046       .  S
N1554      H1570   1.045       .  S
C1556      C1557   1.400       .  A
C1556      H1561   1.084       .  S
C1557      C1558   1.410       .  A
C1557      N1562   1.432       .  S
C1558      C1559   1.405       .  A
C1559      C1560   1.405       .  A
C1559      H1563   1.084       .  S
C1560      N1564   1.438       .  S
N1562      H1565   1.046       .  S
N1562      H1566   1.046       .  S
N1564      H1567   1.046       .  S
N1564      H1568   1.045       .  S
C1573      C1574   1.411       .  A
C1573      C1578   1.403       .  A
C1574      C1575   1.403       .  A
C1574      N1579   1.438       .  S
C1575      C1576   1.400       .  A
C1575      H1580   1.084       .  S
C1576      C1581   1.471       .  S
C1576      C1577   1.408       .  A
C1577      C1578   1.403       .  A
C1577      N1582   1.438       .  S
C1578      H1583   1.084       .  S
N1579      H1599   1.046       .  S
N1579      H1600   1.046       .  S
C1581      C1584   1.400       .  A
C1581      C1588   1.406       .  A
N1582      H1597   1.046       .  S
N1582      H1598   1.044       .  S
C1584      C1585   1.405       .  A
C1584      H1589   1.084       .  S
C1585      C1586   1.414       .  A
C1585      N1590   1.438       .  S
C1586      C1587   1.406       .  A
C1587      C1588   1.402       .  A
C1587      H1591   1.084       .  S
C1588      N1592   1.439       .  S
N1590      H1593   1.046       .  S
N1590      H1594   1.046       .  S
N1592      H1595   1.046       .  S
N1592      H1596   1.044       .  S
C1601      C1602   1.417       .  A
C1601      C1606   1.409       .  A
C1602      C1603   1.407       .  A
C1602      N1607   1.438       .  S
C1603      C1604   1.402       .  A
C1603      H1608   1.084       .  S
C1604      C1609   1.487       .  S
C1604      C1605   1.409       .  A
C1605      C1606   1.408       .  A
C1605      N1610   1.438       .  S
C1606      H1611   1.083       .  S
N1607      H1627   1.046       .  S
N1607      H1628   1.046       .  S
C1609      C1612   1.403       .  A
C1609      C1616   1.408       .  A
N1610      H1625   1.046       .  S
N1610      H1626   1.046       .  S
C1612      C1613   1.409       .  A
C1612      H1617   1.084       .  S
C1613      C1614   1.417       .  A
C1613      N1618   1.438       .  S
C1614      C1615   1.409       .  A
C1615      C1616   1.406       .  A
C1615      H1619   1.083       .  S
C1616      N1620   1.438       .  S
N1618      H1621   1.046       .  S
N1618      H1622   1.045       .  S
N1620      H1623   1.046       .  S
N1620      H1624   1.046       .  S
C1629      C1630   1.414       .  A
C1629      C1634   1.406       .  A
C1630      C1631   1.407       .  A
C1630      N1635   1.438       .  S
C1631      C1632   1.401       .  A
C1631      H1636   1.084       .  S
C1632      C1637   1.476       .  S
C1632      C1633   1.407       .  A
C1633      C1634   1.403       .  A
C1633      N1638   1.438       .  S
C1634      H1639   1.084       .  S
N1635      H1655   1.046       .  S
N1635      H1656   1.046       .  S
C1637      C1640   1.399       .  A
C1637      C1644   1.408       .  A
N1638      H1653   1.046       .  S
N1638      H1654   1.045       .  S
C1640      C1641   1.401       .  A
C1640      H1645   1.084       .  S
C1641      C1642   1.419       .  A
C1641      N1646   1.440       .  S
C1642      C1643   1.406       .  A
C1643      C1644   1.406       .  A
C1643      H1647   1.084       .  S
C1644      N1648   1.438       .  S
N1646      H1649   1.046       .  S
N1646      H1650   1.042       .  S
N1648      H1651   1.046       .  S
N1648      H1652   1.045       .  S
C1657      C1658   1.416       .  A
C1657      C1662   1.406       .  A
C1658      C1659   1.403       .  A
C1658      N1663   1.438       .  S
C1659      C1660   1.399       .  A
C1659      H1664   1.084       .  S
C1660      C1665   1.482       .  S
C1660      C1661   1.411       .  A
C1661      C1662   1.407       .  A
C1661      N1666   1.438       .  S
C1662      H1667   1.084       .  S
N1663      H1683   1.046       .  S
N1663      H1684   1.046       .  S
C1665      C1668   1.399       .  A
C1665      C1672   1.410       .  A
N1666      H1681   1.046       .  S
N1666      H1682   1.045       .  S
C1668      C1669   1.403       .  A
C1668      H1673   1.084       .  S
C1669      C1670   1.418       .  A
C1669      N1674   1.438       .  S
C1670      C1671   1.406       .  A
C1671      C1672   1.406       .  A
C1671      H1675   1.083       .  S
C1672      N1676   1.438       .  S
N1674      H1677   1.045       .  S
N1674      H1678   1.046       .  S
N1676      H1679   1.046       .  S
N1676      H1680   1.046       .  S
C1685      C1686   1.419       .  A
C1685      C1690   1.403       .  A
C1686      C1687   1.400       .  A
C1686      N1691   1.440       .  S
C1687      C1688   1.400       .  A
C1687      H1692   1.084       .  S
C1688      C1693   1.478       .  S
C1688      C1689   1.409       .  A
C1689      C1690   1.407       .  A
C1689      N1694   1.437       .  S
C1690      H1695   1.084       .  S
N1691      H1711   1.042       .  S
N1691      H1712   1.046       .  S
C1693      C1696   1.401       .  A
C1693      C1700   1.408       .  A
N1694      H1709   1.045       .  S
N1694      H1710   1.046       .  S
C1696      C1697   1.405       .  A
C1696      H1701   1.084       .  S
C1697      C1698   1.415       .  A
C1697      N1702   1.439       .  S
C1698      C1699   1.405       .  A
C1699      C1700   1.404       .  A
C1699      H1703   1.084       .  S
C1700      N1704   1.438       .  S
N1702      H1705   1.046       .  S
N1702      H1706   1.046       .  S
N1704      H1707   1.046       .  S
N1704      H1708   1.046       .  S
C1713      C1714   1.419       .  A
C1713      C1718   1.407       .  A
C1714      C1715   1.401       .  A
C1714      N1719   1.437       .  S
C1715      C1716   1.401       .  A
C1715      H1720   1.084       .  S
C1716      C1721   1.479       .  S
C1716      C1717   1.414       .  A
C1717      C1718   1.402       .  A
C1717      N1722   1.439       .  S
C1718      H1723   1.084       .  S
N1719      H1739   1.042       .  S
N1719      H1740   1.045       .  S
C1721      C1724   1.399       .  A
C1721      C1728   1.410       .  A
N1722      H1737   1.046       .  S
N1722      H1738   1.043       .  S
C1724      C1725   1.401       .  A
C1724      H1729   1.084       .  S
C1725      C1726   1.413       .  A
C1725      N1730   1.433       .  S
C1726      C1727   1.405       .  A
C1727      C1728   1.407       .  A
C1727      H1731   1.084       .  S
C1728      N1732   1.437       .  S
N1730      H1733   1.046       .  S
N1730      H1734   1.045       .  S
N1732      H1735   1.046       .  S
N1732      H1736   1.045       .  S
O1741     Zr1753   2.447   1_655  S
O1741      C1743   1.289       .  A
O1742     Zr2127   2.422   1_556  S
O1742      C1743   1.286       .  A
C1743      C1990   1.473       .  S
O1744      C1746   1.287       .  A
O1745      C1746   1.286       .  A
C1746      C1921   1.475       .  S
O1747     Zr1756   2.432   1_655  S
O1747      C1749   1.286       .  A
O1748     Zr2475   2.430       .  S
O1748      C1749   1.288       .  A
C1749      C2061   1.476       .  S
O1750      C1752   1.289       .  A
O1751     Zr1780   2.429       .  S
O1751      C1752   1.287       .  A
C1752      C2033   1.473       .  S
Zr1753     O1754   2.436       .  S
Zr1753     O1759   2.372   1_456  S
Zr1753     O2481   2.374   1_455  S
O1754      H1797   0.990       .  S
Zr1756     O1757   2.438       .  S
Zr1756     O2480   2.372   1_455  S
O1757      H1801   0.990       .  S
O1759     Zr2127   2.380       .  S
O1760     Zr1780   2.388   1_554  S
O1761     Zr1773   2.431       .  S
O1761      C1763   1.286       .  A
O1762     Zr2476   2.430       .  S
O1762      C1763   1.288       .  A
C1763      C1906   1.479       .  S
O1764      C1766   1.290       .  A
O1765     Zr1779   2.420       .  S
O1765      C1766   1.285       .  A
C1766      C1962   1.498       .  S
O1767     Zr1776   2.434       .  S
O1767      C1769   1.287       .  A
O1768     Zr2128   2.425       .  S
O1768      C1769   1.286       .  A
C1769      C1865   1.473       .  S
O1770      C1772   1.286       .  A
O1771      C1772   1.287       .  A
C1772      C2005   1.482       .  S
Zr1773     O1774   2.438       .  S
Zr1773     O1775   2.434       .  S
Zr1773     O2479   2.376       .  S
O1774      H1794   0.990       .  S
O1774      H1799   0.990       .  S
O1775      H1795   0.990       .  S
Zr1776     O1777   2.435       .  S
Zr1776     O1778   2.434       .  S
Zr1776     O1781   2.369       .  S
Zr1776     O2482   2.371       .  S
O1778      H1792   0.990       .  S
O1778      H1802   0.990       .  S
Zr1779     O2090   2.421   1_545  S
Zr1779     O2444   2.432   1_545  S
Zr1779     O2107   2.378   1_545  S
Zr1779     O1782   2.380       .  S
Zr1779     O1784   2.383       .  S
Zr1780     O2458   2.432       .  S
Zr1780     O2116   2.426   1_556  S
Zr1780     O2129   2.380       .  S
Zr1780     O1783   2.382       .  S
O1781     Zr2128   2.383       .  S
O1783     Zr2469   2.371       .  S
O1784     Zr2452   2.368   1_645  S
O1784      H1788   0.966       .  S
O1785     Zr2449   2.372   1_645  S
O1785      H1790   0.966   1_545  S
O1786     Zr2472   2.370       .  S
O1803     Zr1815   2.441       .  S
O1803      C1805   1.288       .  A
O1804     Zr1841   2.431       .  S
O1804      C1805   1.288       .  A
C1805      C2074   1.483       .  S
O1806     Zr1818   2.445       .  S
O1806      C1808   1.288       .  A
O1807     Zr1842   2.418       .  S
O1807      C1808   1.285       .  A
C1808      C2046   1.478       .  S
O1809     Zr1818   2.435       .  S
O1809      C1811   1.288       .  A
O1810     Zr1841   2.427       .  S
O1810      C1811   1.287       .  A
C1811      C1977   1.481       .  S
O1812     Zr1815   2.441       .  S
O1812      C1814   1.289       .  A
O1813     Zr1842   2.421       .  S
O1813      C1814   1.286       .  A
C1814      C1934   1.484       .  S
Zr1815     O1816   2.433       .  S
Zr1815     O1817   2.436       .  S
Zr1815     O1821   2.372       .  S
Zr1815     O1822   2.371       .  S
Zr1815     O1845   2.373       .  S
Zr1815     O1847   2.369       .  S
O1816      H1859   0.990       .  S
O1817      H1858   0.990       .  S
O1817      H1862   0.990       .  S
Zr1818     O1819   2.436       .  S
Zr1818     O1820   2.436       .  S
Zr1818     O1822   2.367       .  S
Zr1818     O1821   2.377       .  S
Zr1818     O1846   2.370       .  S
Zr1818     O1848   2.368       .  S
O1819      H1860   0.990       .  S
O1819      H1863   0.990       .  S
O1820      H1853   0.990       .  S
O1821     Zr1841   2.382       .  S
O1822     Zr1842   2.384       .  S
O1822      H1849   0.966       .  S
O1823     Zr1835   2.450       .  S
O1823      C1825   1.289       .  A
O1824     Zr1842   2.420       .  S
O1824      C1825   1.285       .  A
C1825      C1878   1.482       .  S
O1826     Zr1838   2.435       .  S
O1826      C1828   1.287       .  A
O1827     Zr1841   2.428       .  S
O1827      C1828   1.288       .  A
C1828      C2018   1.487       .  S
O1829     Zr1838   2.437       .  S
O1829      C1831   1.288       .  A
O1830     Zr1842   2.426       .  S
O1830      C1831   1.286       .  A
C1831      C1893   1.477       .  S
O1832     Zr1835   2.441       .  S
O1832      C1834   1.288       .  A
O1833     Zr1841   2.427       .  S
O1833      C1834   1.287       .  A
C1834      C1949   1.478       .  S
Zr1835     O1836   2.435       .  S
Zr1835     O1837   2.437       .  S
Zr1835     O1843   2.368       .  S
Zr1835     O1844   2.373       .  S
Zr1835     O1847   2.371       .  S
Zr1835     O1845   2.371       .  S
O1836      H1856   0.990       .  S
O1836      H1861   0.990       .  S
O1837      H1857   0.990       .  S
Zr1838     O1839   2.430       .  S
Zr1838     O1840   2.434       .  S
Zr1838     O1844   2.367       .  S
Zr1838     O1843   2.369       .  S
Zr1838     O1848   2.371       .  S
Zr1838     O1846   2.368       .  S
O1839      H1855   0.990       .  S
O1840      H1854   0.990       .  S
O1840      H1864   0.990       .  S
Zr1841     O1844   2.378       .  S
Zr1841     O1846   2.387       .  S
Zr1841     O1847   2.387       .  S
Zr1842     O1843   2.381       .  S
Zr1842     O1845   2.385       .  S
Zr1842     O1848   2.382       .  S
O1843      H1851   0.966       .  S
O1846      H1850   0.966       .  S
O1847      H1852   0.966       .  S
C1865      C1866   1.413       .  A
C1865      C1870   1.404       .  A
C1866      C1867   1.402       .  A
C1866      N1871   1.438       .  S
C1867      C1868   1.398       .  A
C1867      H1872   1.084       .  S
C1868      C1873   1.472       .  S
C1868      C1869   1.408       .  A
C1869      C1870   1.405       .  A
C1869      N1874   1.438       .  S
C1870      H1875   1.084       .  S
N1871      H1891   1.046       .  S
N1871      H1892   1.046       .  S
C1873      C1876   1.398       .  A
C1873      C1880   1.407       .  A
N1874      H1889   1.046       .  S
N1874      H1890   1.045       .  S
C1876      C1877   1.397       .  A
C1876      H1881   1.084       .  S
C1877      C1878   1.419       .  A
C1877      N1882   1.433       .  S
C1878      C1879   1.407       .  A
C1879      C1880   1.406       .  A
C1879      H1883   1.084       .  S
C1880      N1884   1.438       .  S
N1882      H1885   1.044       .  S
N1882      H1886   1.045       .  S
N1884      H1887   1.046       .  S
N1884      H1888   1.045       .  S
C1893      C1894   1.413       .  A
C1893      C1898   1.405       .  A
C1894      C1895   1.407       .  A
C1894      N1899   1.438       .  S
C1895      C1896   1.402       .  A
C1895      H1900   1.084       .  S
C1896      C1901   1.475       .  S
C1896      C1897   1.406       .  A
C1897      C1898   1.402       .  A
C1897      N1902   1.438       .  S
C1898      H1903   1.084       .  S
N1899      H1919   1.045       .  S
N1899      H1920   1.046       .  S
C1901      C1904   1.399       .  A
C1901      C1908   1.409       .  A
N1902      H1917   1.046       .  S
N1902      H1918   1.045       .  S
C1904      C1905   1.401       .  A
C1904      H1909   1.084       .  S
C1905      C1906   1.412       .  A
C1905      N1910   1.433       .  S
C1906      C1907   1.405       .  A
C1907      C1908   1.405       .  A
C1907      H1911   1.084       .  S
C1908      N1912   1.438       .  S
N1910      H1913   1.046       .  S
N1910      H1914   1.045       .  S
N1912      H1915   1.046       .  S
N1912      H1916   1.045       .  S
C1921      C1922   1.412       .  A
C1921      C1926   1.403       .  A
C1922      C1923   1.406       .  A
C1922      N1927   1.438       .  S
C1923      C1924   1.402       .  A
C1923      H1928   1.084       .  S
C1924      C1929   1.477       .  S
C1924      C1925   1.410       .  A
C1925      C1926   1.404       .  A
C1925      N1930   1.439       .  S
C1926      H1931   1.084       .  S
N1927      H1947   1.046       .  S
N1927      H1948   1.046       .  S
C1929      C1932   1.401       .  A
C1929      C1936   1.407       .  A
N1930      H1945   1.046       .  S
N1930      H1946   1.044       .  S
C1932      C1933   1.407       .  A
C1932      H1937   1.084       .  S
C1933      C1934   1.416       .  A
C1933      N1938   1.438       .  S
C1934      C1935   1.407       .  A
C1935      C1936   1.403       .  A
C1935      H1939   1.084       .  S
C1936      N1940   1.439       .  S
N1938      H1941   1.046       .  S
N1938      H1942   1.046       .  S
N1940      H1943   1.046       .  S
N1940      H1944   1.044       .  S
C1949      C1950   1.412       .  A
C1949      C1954   1.404       .  A
C1950      C1951   1.406       .  A
C1950      N1955   1.438       .  S
C1951      C1952   1.405       .  A
C1951      H1956   1.084       .  S
C1952      C1957   1.488       .  S
C1952      C1953   1.412       .  A
C1953      C1954   1.405       .  A
C1953      N1958   1.438       .  S
C1954      H1959   1.084       .  S
N1955      H1975   1.046       .  S
N1955      H1976   1.046       .  S
C1957      C1960   1.402       .  A
C1957      C1964   1.408       .  A
N1958      H1973   1.046       .  S
N1958      H1974   1.046       .  S
C1960      C1961   1.408       .  A
C1960      H1965   1.084       .  S
C1961      C1962   1.422       .  A
C1961      N1966   1.438       .  S
C1962      C1963   1.410       .  A
C1963      C1964   1.404       .  A
C1963      H1967   1.083       .  S
C1964      N1968   1.438       .  S
N1966      H1969   1.046       .  S
N1966      H1970   1.044       .  S
N1968      H1971   1.046       .  S
N1968      H1972   1.046       .  S
C1977      C1978   1.414       .  A
C1977      C1982   1.406       .  A
C1978      C1979   1.408       .  A
C1978      N1983   1.438       .  S
C1979      C1980   1.402       .  A
C1979      H1984   1.084       .  S
C1980      C1985   1.477       .  S
C1980      C1981   1.406       .  A
C1981      C1982   1.402       .  A
C1981      N1986   1.438       .  S
C1982      H1987   1.084       .  S
N1983      H2003   1.046       .  S
N1983      H2004   1.046       .  S
C1985      C1988   1.400       .  A
C1985      C1992   1.408       .  A
N1986      H2001   1.046       .  S
N1986      H2002   1.045       .  S
C1988      C1989   1.402       .  A
C1988      H1993   1.084       .  S
C1989      C1990   1.418       .  A
C1989      N1994   1.439       .  S
C1990      C1991   1.404       .  A
C1991      C1992   1.405       .  A
C1991      H1995   1.084       .  S
C1992      N1996   1.438       .  S
N1994      H1997   1.046       .  S
N1994      H1998   1.042       .  S
N1996      H1999   1.046       .  S
N1996      H2000   1.045       .  S
C2005      C2006   1.415       .  A
C2005      C2010   1.405       .  A
C2006      C2007   1.403       .  A
C2006      N2011   1.438       .  S
C2007      C2008   1.401       .  A
C2007      H2012   1.084       .  S
C2008      C2013   1.482       .  S
C2008      C2009   1.410       .  A
C2009      C2010   1.405       .  A
C2009      N2014   1.438       .  S
C2010      H2015   1.084       .  S
N2011      H2031   1.046       .  S
N2011      H2032   1.046       .  S
C2013      C2016   1.399       .  A
C2013      C2020   1.410       .  A
N2014      H2029   1.046       .  S
N2014      H2030   1.045       .  S
C2016      C2017   1.404       .  A
C2016      H2021   1.084       .  S
C2017      C2018   1.417       .  A
C2017      N2022   1.438       .  S
C2018      C2019   1.406       .  A
C2019      C2020   1.407       .  A
C2019      H2023   1.083       .  S
C2020      N2024   1.438       .  S
N2022      H2025   1.045       .  S
N2022      H2026   1.046       .  S
N2024      H2027   1.046       .  S
N2024      H2028   1.046       .  S
C2033      C2034   1.419       .  A
C2033      C2038   1.404       .  A
C2034      C2035   1.400       .  A
C2034      N2039   1.440       .  S
C2035      C2036   1.399       .  A
C2035      H2040   1.084       .  S
C2036      C2041   1.479       .  S
C2036      C2037   1.409       .  A
C2037      C2038   1.407       .  A
C2037      N2042   1.438       .  S
C2038      H2043   1.084       .  S
N2039      H2059   1.042       .  S
N2039      H2060   1.046       .  S
C2041      C2044   1.402       .  A
C2041      C2048   1.408       .  A
N2042      H2057   1.045       .  S
N2042      H2058   1.046       .  S
C2044      C2045   1.405       .  A
C2044      H2049   1.084       .  S
C2045      C2046   1.414       .  A
C2045      N2050   1.438       .  S
C2046      C2047   1.404       .  A
C2047      C2048   1.404       .  A
C2047      H2051   1.084       .  S
C2048      N2052   1.438       .  S
N2050      H2053   1.046       .  S
N2050      H2054   1.046       .  S
N2052      H2055   1.046       .  S
N2052      H2056   1.046       .  S
C2061      C2062   1.417       .  A
C2061      C2066   1.405       .  A
C2062      C2063   1.401       .  A
C2062      N2067   1.437       .  S
C2063      C2064   1.401       .  A
C2063      H2068   1.084       .  S
C2064      C2069   1.478       .  S
C2064      C2065   1.414       .  A
C2065      C2066   1.401       .  A
C2065      N2070   1.438       .  S
C2066      H2071   1.085       .  S
N2067      H2087   1.042       .  S
N2067      H2088   1.045       .  S
C2069      C2072   1.400       .  A
C2069      C2076   1.409       .  A
N2070      H2085   1.046       .  S
N2070      H2086   1.043       .  S
C2072      C2073   1.403       .  A
C2072      H2077   1.084       .  S
C2073      C2074   1.413       .  A
C2073      N2078   1.432       .  S
C2074      C2075   1.406       .  A
C2075      C2076   1.407       .  A
C2075      H2079   1.084       .  S
C2076      N2080   1.437       .  S
N2078      H2081   1.046       .  S
N2078      H2082   1.046       .  S
N2080      H2083   1.046       .  S
N2080      H2084   1.045       .  S
O2089     Zr2101   2.438   1_655  S
O2089      C2091   1.288       .  A
O2090      C2091   1.286       .  A
C2091      C2338   1.471       .  S
O2092      C2094   1.288       .  A
O2093     Zr2476   2.419   1_564  S
O2093      C2094   1.286       .  A
C2094      C2269   1.471       .  S
O2095     Zr2104   2.440   1_655  S
O2095      C2097   1.287       .  A
O2096      C2097   1.286       .  A
C2097      C2409   1.469       .  S
O2098      C2100   1.288       .  A
O2099     Zr2128   2.426   1_565  S
O2099      C2100   1.287       .  A
C2100      C2381   1.472       .  S
Zr2101     O2102   2.435       .  S
Zr2101     O2107   2.374   1_455  S
O2102      H2145   0.990       .  S
Zr2104     O2105   2.438       .  S
Zr2104     O2455   2.371   1_455  S
O2105      H2149   0.990       .  S
O2107     Zr2452   2.371   1_655  S
O2108     Zr2128   2.380   1_565  S
O2108      H2483   0.965       .  S
O2109     Zr2121   2.431       .  S
O2109      C2111   1.285       .  A
O2110      C2111   1.286       .  A
C2111      C2254   1.473       .  S
O2112      C2114   1.290       .  A
O2113     Zr2127   2.424       .  S
O2113      C2114   1.286       .  A
C2114      C2310   1.499       .  S
O2115     Zr2124   2.437       .  S
O2115      C2117   1.287       .  A
O2116      C2117   1.287       .  A
C2117      C2213   1.473       .  S
O2118      C2120   1.286       .  A
O2119     Zr2475   2.421       .  S
O2119      C2120   1.286       .  A
C2120      C2353   1.481       .  S
Zr2121     O2122   2.439       .  S
Zr2121     O2123   2.434       .  S
Zr2121     O2477   2.364       .  S
O2122      H2142   0.990       .  S
O2122      H2147   0.990       .  S
O2123      H2143   0.990       .  S
Zr2124     O2125   2.434       .  S
Zr2124     O2126   2.434       .  S
Zr2124     O2129   2.370   1_554  S
O2126      H2140   0.991       .  S
O2126      H2150   0.990       .  S
Zr2127     O2467   2.431   1_554  S
Zr2127     O2130   2.377   1_554  S
Zr2127     O2132   2.385       .  S
Zr2127     O2481   2.385   1_554  S
Zr2128     O2441   2.420   1_545  S
Zr2128     O2131   2.385       .  S
Zr2128     O2482   2.381       .  S
O2129     Zr2469   2.363       .  S
O2129      H2485   0.966       .  S
O2132      H2136   0.966       .  S
O2133     Zr2475   2.391       .  S
O2133      H2138   0.966       .  S
O2134     Zr2476   2.384   1_554  S
H2135      O2456   0.966       .  S
H2137      O2477   0.966       .  S
O2151     Zr2163   2.429       .  S
O2151      C2153   1.286       .  A
O2152     Zr2189   2.441       .  S
O2152      C2153   1.290       .  A
C2153      C2422   1.489       .  S
O2154     Zr2166   2.438       .  S
O2154      C2156   1.287       .  A
O2155     Zr2190   2.424       .  S
O2155      C2156   1.287       .  A
C2156      C2394   1.476       .  S
O2157     Zr2166   2.431       .  S
O2157      C2159   1.286       .  A
O2158     Zr2189   2.430       .  S
O2158      C2159   1.288       .  A
C2159      C2325   1.481       .  S
O2160     Zr2163   2.439       .  S
O2160      C2162   1.288       .  A
O2161     Zr2190   2.422       .  S
O2161      C2162   1.286       .  A
C2162      C2282   1.479       .  S
Zr2163     O2164   2.434       .  S
Zr2163     O2165   2.436       .  S
Zr2163     O2169   2.371       .  S
Zr2163     O2170   2.362       .  S
Zr2163     O2193   2.371       .  S
Zr2163     O2195   2.373       .  S
O2164      H2207   0.990       .  S
O2165      H2206   0.990       .  S
O2165      H2210   0.990       .  S
Zr2166     O2167   2.435       .  S
Zr2166     O2168   2.433       .  S
Zr2166     O2170   2.372       .  S
Zr2166     O2169   2.374       .  S
Zr2166     O2194   2.366       .  S
Zr2166     O2196   2.370       .  S
O2167      H2208   0.990       .  S
O2167      H2211   0.990       .  S
O2168      H2201   0.990       .  S
O2169     Zr2189   2.379       .  S
O2170     Zr2190   2.383       .  S
O2170      H2197   0.966       .  S
O2171     Zr2183   2.447       .  S
O2171      C2173   1.289       .  A
O2172     Zr2190   2.425       .  S
O2172      C2173   1.286       .  A
C2173      C2226   1.483       .  S
O2174     Zr2186   2.433       .  S
O2174      C2176   1.287       .  A
O2175     Zr2189   2.431       .  S
O2175      C2176   1.288       .  A
C2176      C2366   1.484       .  S
O2177     Zr2186   2.446       .  S
O2177      C2179   1.289       .  A
O2178     Zr2190   2.421       .  S
O2178      C2179   1.285       .  A
C2179      C2241   1.478       .  S
O2180     Zr2183   2.450       .  S
O2180      C2182   1.290       .  A
O2181     Zr2189   2.423       .  S
O2181      C2182   1.287       .  A
C2182      C2297   1.480       .  S
Zr2183     O2184   2.438       .  S
Zr2183     O2185   2.433       .  S
Zr2183     O2191   2.370       .  S
Zr2183     O2192   2.372       .  S
Zr2183     O2195   2.371       .  S
Zr2183     O2193   2.377       .  S
O2184      H2204   0.990       .  S
O2184      H2209   0.990       .  S
O2185      H2205   0.990       .  S
Zr2186     O2187   2.434       .  S
Zr2186     O2188   2.438       .  S
Zr2186     O2192   2.375       .  S
Zr2186     O2191   2.366       .  S
Zr2186     O2196   2.372       .  S
Zr2186     O2194   2.373       .  S
O2187      H2203   0.990       .  S
O2188      H2202   0.990       .  S
O2188      H2212   0.990       .  S
Zr2189     O2192   2.384       .  S
Zr2189     O2194   2.388       .  S
Zr2189     O2195   2.388       .  S
Zr2190     O2191   2.382       .  S
Zr2190     O2193   2.382       .  S
Zr2190     O2196   2.384       .  S
O2191      H2199   0.966       .  S
O2194      H2198   0.966       .  S
O2195      H2200   0.966       .  S
C2213      C2214   1.413       .  A
C2213      C2218   1.402       .  A
C2214      C2215   1.404       .  A
C2214      N2219   1.438       .  S
C2215      C2216   1.399       .  A
C2215      H2220   1.084       .  S
C2216      C2221   1.476       .  S
C2216      C2217   1.409       .  A
C2217      C2218   1.405       .  A
C2217      N2222   1.437       .  S
C2218      H2223   1.084       .  S
N2219      H2239   1.046       .  S
N2219      H2240   1.046       .  S
C2221      C2224   1.399       .  A
C2221      C2228   1.407       .  A
N2222      H2237   1.046       .  S
N2222      H2238   1.045       .  S
C2224      C2225   1.397       .  A
C2224      H2229   1.084       .  S
C2225      C2226   1.419       .  A
C2225      N2230   1.433       .  S
C2226      C2227   1.408       .  A
C2227      C2228   1.407       .  A
C2227      H2231   1.084       .  S
C2228      N2232   1.438       .  S
N2230      H2233   1.044       .  S
N2230      H2234   1.046       .  S
N2232      H2235   1.046       .  S
N2232      H2236   1.045       .  S
C2241      C2242   1.414       .  A
C2241      C2246   1.405       .  A
C2242      C2243   1.407       .  A
C2242      N2247   1.438       .  S
C2243      C2244   1.400       .  A
C2243      H2248   1.084       .  S
C2244      C2249   1.472       .  S
C2244      C2245   1.406       .  A
C2245      C2246   1.402       .  A
C2245      N2250   1.438       .  S
C2246      H2251   1.084       .  S
N2247      H2267   1.045       .  S
N2247      H2268   1.046       .  S
C2249      C2252   1.399       .  A
C2249      C2256   1.409       .  A
N2250      H2265   1.046       .  S
N2250      H2266   1.045       .  S
C2252      C2253   1.401       .  A
C2252      H2257   1.084       .  S
C2253      C2254   1.410       .  A
C2253      N2258   1.433       .  S
C2254      C2255   1.404       .  A
C2255      C2256   1.403       .  A
C2255      H2259   1.084       .  S
C2256      N2260   1.438       .  S
N2258      H2261   1.046       .  S
N2258      H2262   1.046       .  S
N2260      H2263   1.046       .  S
N2260      H2264   1.045       .  S
C2269      C2270   1.411       .  A
C2269      C2274   1.403       .  A
C2270      C2271   1.404       .  A
C2270      N2275   1.438       .  S
C2271      C2272   1.400       .  A
C2271      H2276   1.084       .  S
C2272      C2277   1.471       .  S
C2272      C2273   1.408       .  A
C2273      C2274   1.402       .  A
C2273      N2278   1.438       .  S
C2274      H2279   1.084       .  S
N2275      H2295   1.046       .  S
N2275      H2296   1.046       .  S
C2277      C2280   1.400       .  A
C2277      C2284   1.406       .  A
N2278      H2293   1.046       .  S
N2278      H2294   1.045       .  S
C2280      C2281   1.405       .  A
C2280      H2285   1.084       .  S
C2281      C2282   1.414       .  A
C2281      N2286   1.438       .  S
C2282      C2283   1.406       .  A
C2283      C2284   1.402       .  A
C2283      H2287   1.084       .  S
C2284      N2288   1.438       .  S
N2286      H2289   1.046       .  S
N2286      H2290   1.046       .  S
N2288      H2291   1.046       .  S
N2288      H2292   1.045       .  S
C2297      C2298   1.413       .  A
C2297      C2302   1.405       .  A
C2298      C2299   1.404       .  A
C2298      N2303   1.439       .  S
C2299      C2300   1.402       .  A
C2299      H2304   1.084       .  S
C2300      C2305   1.485       .  S
C2300      C2301   1.411       .  A
C2301      C2302   1.409       .  A
C2301      N2306   1.438       .  S
C2302      H2307   1.084       .  S
N2303      H2323   1.046       .  S
N2303      H2324   1.046       .  S
C2305      C2308   1.401       .  A
C2305      C2312   1.407       .  A
N2306      H2321   1.046       .  S
N2306      H2322   1.046       .  S
C2308      C2309   1.407       .  A
C2308      H2313   1.084       .  S
C2309      C2310   1.422       .  A
C2309      N2314   1.437       .  S
C2310      C2311   1.411       .  A
C2311      C2312   1.405       .  A
C2311      H2315   1.083       .  S
C2312      N2316   1.438       .  S
N2314      H2317   1.046       .  S
N2314      H2318   1.044       .  S
N2316      H2319   1.045       .  S
N2316      H2320   1.046       .  S
C2325      C2326   1.413       .  A
C2325      C2330   1.406       .  A
C2326      C2327   1.408       .  A
C2326      N2331   1.438       .  S
C2327      C2328   1.402       .  A
C2327      H2332   1.084       .  S
C2328      C2333   1.476       .  S
C2328      C2329   1.406       .  A
C2329      C2330   1.403       .  A
C2329      N2334   1.438       .  S
C2330      H2335   1.084       .  S
N2331      H2351   1.046       .  S
N2331      H2352   1.046       .  S
C2333      C2336   1.401       .  A
C2333      C2340   1.408       .  A
N2334      H2349   1.046       .  S
N2334      H2350   1.045       .  S
C2336      C2337   1.401       .  A
C2336      H2341   1.084       .  S
C2337      C2338   1.418       .  A
C2337      N2342   1.440       .  S
C2338      C2339   1.404       .  A
C2339      C2340   1.404       .  A
C2339      H2343   1.084       .  S
C2340      N2344   1.438       .  S
N2342      H2345   1.046       .  S
N2342      H2346   1.042       .  S
N2344      H2347   1.046       .  S
N2344      H2348   1.045       .  S
C2353      C2354   1.416       .  A
C2353      C2358   1.406       .  A
C2354      C2355   1.402       .  A
C2354      N2359   1.439       .  S
C2355      C2356   1.400       .  A
C2355      H2360   1.084       .  S
C2356      C2361   1.479       .  S
C2356      C2357   1.409       .  A
C2357      C2358   1.405       .  A
C2357      N2362   1.438       .  S
C2358      H2363   1.084       .  S
N2359      H2379   1.046       .  S
N2359      H2380   1.046       .  S
C2361      C2364   1.399       .  A
C2361      C2368   1.409       .  A
N2362      H2377   1.046       .  S
N2362      H2378   1.046       .  S
C2364      C2365   1.403       .  A
C2364      H2369   1.084       .  S
C2365      C2366   1.417       .  A
C2365      N2370   1.438       .  S
C2366      C2367   1.405       .  A
C2367      C2368   1.406       .  A
C2367      H2371   1.083       .  S
C2368      N2372   1.438       .  S
N2370      H2373   1.045       .  S
N2370      H2374   1.046       .  S
N2372      H2375   1.045       .  S
N2372      H2376   1.046       .  S
C2381      C2382   1.420       .  A
C2381      C2386   1.403       .  A
C2382      C2383   1.400       .  A
C2382      N2387   1.440       .  S
C2383      C2384   1.399       .  A
C2383      H2388   1.084       .  S
C2384      C2389   1.476       .  S
C2384      C2385   1.408       .  A
C2385      C2386   1.405       .  A
C2385      N2390   1.438       .  S
C2386      H2391   1.084       .  S
N2387      H2407   1.042       .  S
N2387      H2408   1.046       .  S
C2389      C2392   1.401       .  A
C2389      C2396   1.408       .  A
N2390      H2405   1.045       .  S
N2390      H2406   1.046       .  S
C2392      C2393   1.404       .  A
C2392      H2397   1.084       .  S
C2393      C2394   1.413       .  A
C2393      N2398   1.438       .  S
C2394      C2395   1.405       .  A
C2395      C2396   1.405       .  A
C2395      H2399   1.084       .  S
C2396      N2400   1.438       .  S
N2398      H2401   1.046       .  S
N2398      H2402   1.046       .  S
N2400      H2403   1.046       .  S
N2400      H2404   1.046       .  S
C2409      C2410   1.414       .  A
C2409      C2414   1.401       .  A
C2410      C2411   1.403       .  A
C2410      N2415   1.439       .  S
C2411      C2412   1.405       .  A
C2411      H2416   1.084       .  S
C2412      C2417   1.486       .  S
C2412      C2413   1.419       .  A
C2413      C2414   1.402       .  A
C2413      N2418   1.439       .  S
C2414      H2419   1.084       .  S
N2415      H2435   1.043       .  S
N2415      H2436   1.045       .  S
C2417      C2420   1.401       .  A
C2417      C2424   1.411       .  A
N2418      H2433   1.046       .  S
N2418      H2434   1.042       .  S
C2420      C2421   1.403       .  A
C2420      H2425   1.084       .  S
C2421      C2422   1.416       .  A
C2421      N2426   1.433       .  S
C2422      C2423   1.406       .  A
C2423      C2424   1.408       .  A
C2423      H2427   1.083       .  S
C2424      N2428   1.437       .  S
N2426      H2429   1.046       .  S
N2426      H2430   1.046       .  S
N2428      H2431   1.046       .  S
N2428      H2432   1.046       .  S
O2437     Zr2449   2.441   1_655  S
O2437      C2439   1.288       .  A
O2438      C2439   1.287       .  A
C2439      C2686   1.475       .  S
O2440      C2442   1.287       .  A
O2441      C2442   1.286       .  A
C2442      C2617   1.473       .  S
O2443     Zr2452   2.434   1_655  S
O2443      C2445   1.287       .  A
O2444      C2445   1.288       .  A
C2445      C2757   1.478       .  S
O2446      C2448   1.289       .  A
O2447     Zr2476   2.428   1_565  S
O2447      C2448   1.287       .  A
C2448      C2729   1.474       .  S
Zr2449     O2450   2.434       .  S
Zr2449     O2455   2.373   1_456  S
O2450      H2493   0.990       .  S
Zr2452     O2453   2.437       .  S
O2453      H2497   0.990       .  S
O2456     Zr2476   2.383   1_564  S
O2457     Zr2469   2.432       .  S
O2457      C2459   1.286       .  A
O2458      C2459   1.289       .  A
C2459      C2602   1.479       .  S
O2460      C2462   1.288       .  A
O2461     Zr2475   2.427       .  S
O2461      C2462   1.287       .  A
C2462      C2658   1.498       .  S
O2463     Zr2472   2.438       .  S
O2463      C2465   1.287       .  A
O2464      C2465   1.285       .  A
C2465      C2561   1.470       .  S
O2466      C2468   1.285       .  A
O2467      C2468   1.288       .  A
C2468      C2701   1.483       .  S
Zr2469     O2470   2.438       .  S
Zr2469     O2471   2.436       .  S
O2470      H2490   0.991       .  S
O2470      H2495   0.990       .  S
O2471      H2491   0.990       .  S
Zr2472     O2473   2.434       .  S
Zr2472     O2474   2.434       .  S
Zr2472     O2477   2.369       .  S
O2474      H2488   0.991       .  S
O2474      H2498   0.990       .  S
Zr2475     O2478   2.382       .  S
Zr2475     O2480   2.384       .  S
Zr2476     O2479   2.382       .  S
O2480      H2484   0.966       .  S
O2481      H2486   0.966       .  S
O2499     Zr2511   2.441       .  S
O2499      C2501   1.288       .  A
O2500     Zr2537   2.425       .  S
O2500      C2501   1.287       .  A
C2501      C2770   1.481       .  S
O2502     Zr2514   2.441       .  S
O2502      C2504   1.288       .  A
O2503     Zr2538   2.415       .  S
O2503      C2504   1.285       .  A
C2504      C2742   1.478       .  S
O2505     Zr2514   2.433       .  S
O2505      C2507   1.287       .  A
O2506     Zr2537   2.428       .  S
O2506      C2507   1.287       .  A
C2507      C2673   1.483       .  S
O2508     Zr2511   2.439       .  S
O2508      C2510   1.288       .  A
O2509     Zr2538   2.428       .  S
O2509      C2510   1.288       .  A
C2510      C2630   1.485       .  S
Zr2511     O2512   2.435       .  S
Zr2511     O2513   2.436       .  S
Zr2511     O2517   2.372       .  S
Zr2511     O2518   2.369       .  S
Zr2511     O2541   2.377       .  S
Zr2511     O2543   2.372       .  S
O2512      H2555   0.990       .  S
O2513      H2554   0.990       .  S
O2513      H2558   0.990       .  S
Zr2514     O2515   2.435       .  S
Zr2514     O2516   2.436       .  S
Zr2514     O2518   2.371       .  S
Zr2514     O2517   2.375       .  S
Zr2514     O2542   2.368       .  S
Zr2514     O2544   2.367       .  S
O2515      H2556   0.990       .  S
O2515      H2559   0.990       .  S
O2516      H2549   0.990       .  S
O2517     Zr2537   2.380       .  S
O2518     Zr2538   2.383       .  S
O2518      H2545   0.966       .  S
O2519     Zr2531   2.444       .  S
O2519      C2521   1.289       .  A
O2520     Zr2538   2.427       .  S
O2520      C2521   1.286       .  A
C2521      C2574   1.485       .  S
O2522     Zr2534   2.433       .  S
O2522      C2524   1.287       .  A
O2523     Zr2537   2.426       .  S
O2523      C2524   1.287       .  A
C2524      C2714   1.484       .  S
O2525     Zr2534   2.437       .  S
O2525      C2527   1.288       .  A
O2526     Zr2538   2.423       .  S
O2526      C2527   1.286       .  A
C2527      C2589   1.474       .  S
O2528     Zr2531   2.434       .  S
O2528      C2530   1.287       .  A
O2529     Zr2537   2.426       .  S
O2529      C2530   1.287       .  A
C2530      C2645   1.478       .  S
Zr2531     O2532   2.437       .  S
Zr2531     O2533   2.435       .  S
Zr2531     O2539   2.365       .  S
Zr2531     O2540   2.372       .  S
Zr2531     O2543   2.370       .  S
Zr2531     O2541   2.373       .  S
O2532      H2552   0.990       .  S
O2532      H2557   0.990       .  S
O2533      H2553   0.990       .  S
Zr2534     O2535   2.434       .  S
Zr2534     O2536   2.435       .  S
Zr2534     O2540   2.367       .  S
Zr2534     O2539   2.366       .  S
Zr2534     O2544   2.371       .  S
Zr2534     O2542   2.370       .  S
O2535      H2551   0.990       .  S
O2536      H2550   0.990       .  S
O2536      H2560   0.990       .  S
Zr2537     O2540   2.377       .  S
Zr2537     O2542   2.385       .  S
Zr2537     O2543   2.387       .  S
Zr2538     O2539   2.379       .  S
Zr2538     O2541   2.383       .  S
Zr2538     O2544   2.384       .  S
O2539      H2547   0.966       .  S
O2542      H2546   0.966       .  S
O2543      H2548   0.966       .  S
C2561      C2562   1.411       .  A
C2561      C2566   1.402       .  A
C2562      C2563   1.403       .  A
C2562      N2567   1.438       .  S
C2563      C2564   1.400       .  A
C2563      H2568   1.084       .  S
C2564      C2569   1.474       .  S
C2564      C2565   1.409       .  A
C2565      C2566   1.404       .  A
C2565      N2570   1.437       .  S
C2566      H2571   1.084       .  S
N2567      H2587   1.046       .  S
N2567      H2588   1.046       .  S
C2569      C2572   1.398       .  A
C2569      C2576   1.407       .  A
N2570      H2585   1.046       .  S
N2570      H2586   1.045       .  S
C2572      C2573   1.397       .  A
C2572      H2577   1.084       .  S
C2573      C2574   1.419       .  A
C2573      N2578   1.432       .  S
C2574      C2575   1.408       .  A
C2575      C2576   1.406       .  A
C2575      H2579   1.084       .  S
C2576      N2580   1.438       .  S
N2578      H2581   1.044       .  S
N2578      H2582   1.045       .  S
N2580      H2583   1.046       .  S
N2580      H2584   1.045       .  S
C2589      C2590   1.413       .  A
C2589      C2594   1.403       .  A
C2590      C2591   1.408       .  A
C2590      N2595   1.438       .  S
C2591      C2592   1.402       .  A
C2591      H2596   1.084       .  S
C2592      C2597   1.475       .  S
C2592      C2593   1.406       .  A
C2593      C2594   1.401       .  A
C2593      N2598   1.438       .  S
C2594      H2599   1.084       .  S
N2595      H2615   1.045       .  S
N2595      H2616   1.046       .  S
C2597      C2600   1.400       .  A
C2597      C2604   1.408       .  A
N2598      H2613   1.046       .  S
N2598      H2614   1.045       .  S
C2600      C2601   1.402       .  A
C2600      H2605   1.084       .  S
C2601      C2602   1.412       .  A
C2601      N2606   1.433       .  S
C2602      C2603   1.405       .  A
C2603      C2604   1.405       .  A
C2603      H2607   1.084       .  S
C2604      N2608   1.438       .  S
N2606      H2609   1.046       .  S
N2606      H2610   1.045       .  S
N2608      H2611   1.046       .  S
N2608      H2612   1.045       .  S
C2617      C2618   1.411       .  A
C2617      C2622   1.404       .  A
C2618      C2619   1.405       .  A
C2618      N2623   1.438       .  S
C2619      C2620   1.401       .  A
C2619      H2624   1.084       .  S
C2620      C2625   1.475       .  S
C2620      C2621   1.409       .  A
C2621      C2622   1.403       .  A
C2621      N2626   1.438       .  S
C2622      H2627   1.084       .  S
N2623      H2643   1.046       .  S
N2623      H2644   1.046       .  S
C2625      C2628   1.400       .  A
C2625      C2632   1.406       .  A
N2626      H2641   1.046       .  S
N2626      H2642   1.044       .  S
C2628      C2629   1.406       .  A
C2628      H2633   1.084       .  S
C2629      C2630   1.415       .  A
C2629      N2634   1.438       .  S
C2630      C2631   1.408       .  A
C2631      C2632   1.404       .  A
C2631      H2635   1.084       .  S
C2632      N2636   1.439       .  S
N2634      H2637   1.046       .  S
N2634      H2638   1.046       .  S
N2636      H2639   1.046       .  S
N2636      H2640   1.044       .  S
C2645      C2646   1.411       .  A
C2645      C2650   1.404       .  A
C2646      C2647   1.405       .  A
C2646      N2651   1.438       .  S
C2647      C2648   1.405       .  A
C2647      H2652   1.083       .  S
C2648      C2653   1.489       .  S
C2648      C2649   1.413       .  A
C2649      C2650   1.405       .  A
C2649      N2654   1.438       .  S
C2650      H2655   1.084       .  S
N2651      H2671   1.046       .  S
N2651      H2672   1.046       .  S
C2653      C2656   1.402       .  A
C2653      C2660   1.409       .  A
N2654      H2669   1.046       .  S
N2654      H2670   1.046       .  S
C2656      C2657   1.406       .  A
C2656      H2661   1.084       .  S
C2657      C2658   1.420       .  A
C2657      N2662   1.437       .  S
C2658      C2659   1.411       .  A
C2659      C2660   1.405       .  A
C2659      H2663   1.083       .  S
C2660      N2664   1.439       .  S
N2662      H2665   1.046       .  S
N2662      H2666   1.043       .  S
N2664      H2667   1.046       .  S
N2664      H2668   1.046       .  S
C2673      C2674   1.414       .  A
C2673      C2678   1.407       .  A
C2674      C2675   1.407       .  A
C2674      N2679   1.438       .  S
C2675      C2676   1.401       .  A
C2675      H2680   1.084       .  S
C2676      C2681   1.478       .  S
C2676      C2677   1.407       .  A
C2677      C2678   1.404       .  A
C2677      N2682   1.438       .  S
C2678      H2683   1.084       .  S
N2679      H2699   1.046       .  S
N2679      H2700   1.046       .  S
C2681      C2684   1.401       .  A
C2681      C2688   1.408       .  A
N2682      H2697   1.046       .  S
N2682      H2698   1.045       .  S
C2684      C2685   1.403       .  A
C2684      H2689   1.084       .  S
C2685      C2686   1.418       .  A
C2685      N2690   1.439       .  S
C2686      C2687   1.404       .  A
C2687      C2688   1.406       .  A
C2687      H2691   1.083       .  S
C2688      N2692   1.438       .  S
N2690      H2693   1.046       .  S
N2690      H2694   1.043       .  S
N2692      H2695   1.046       .  S
N2692      H2696   1.045       .  S
C2701      C2702   1.417       .  A
C2701      C2706   1.406       .  A
C2702      C2703   1.402       .  A
C2702      N2707   1.438       .  S
C2703      C2704   1.399       .  A
C2703      H2708   1.084       .  S
C2704      C2709   1.480       .  S
C2704      C2705   1.410       .  A
C2705      C2706   1.406       .  A
C2705      N2710   1.438       .  S
C2706      H2711   1.084       .  S
N2707      H2727   1.046       .  S
N2707      H2728   1.046       .  S
C2709      C2712   1.399       .  A
C2709      C2716   1.410       .  A
N2710      H2725   1.046       .  S
N2710      H2726   1.045       .  S
C2712      C2713   1.404       .  A
C2712      H2717   1.084       .  S
C2713      C2714   1.417       .  A
C2713      N2718   1.438       .  S
C2714      C2715   1.405       .  A
C2715      C2716   1.405       .  A
C2715      H2719   1.083       .  S
C2716      N2720   1.438       .  S
N2718      H2721   1.045       .  S
N2718      H2722   1.046       .  S
N2720      H2723   1.046       .  S
N2720      H2724   1.046       .  S
C2729      C2730   1.419       .  A
C2729      C2734   1.403       .  A
C2730      C2731   1.401       .  A
C2730      N2735   1.439       .  S
C2731      C2732   1.401       .  A
C2731      H2736   1.084       .  S
C2732      C2737   1.480       .  S
C2732      C2733   1.409       .  A
C2733      C2734   1.406       .  A
C2733      N2738   1.438       .  S
C2734      H2739   1.084       .  S
N2735      H2755   1.042       .  S
N2735      H2756   1.046       .  S
C2737      C2740   1.402       .  A
C2737      C2744   1.408       .  A
N2738      H2753   1.046       .  S
N2738      H2754   1.046       .  S
C2740      C2741   1.406       .  A
C2740      H2745   1.084       .  S
C2741      C2742   1.415       .  A
C2741      N2746   1.439       .  S
C2742      C2743   1.404       .  A
C2743      C2744   1.403       .  A
C2743      H2747   1.084       .  S
C2744      N2748   1.438       .  S
N2746      H2749   1.046       .  S
N2746      H2750   1.046       .  S
N2748      H2751   1.046       .  S
N2748      H2752   1.046       .  S
C2757      C2758   1.418       .  A
C2757      C2762   1.405       .  A
C2758      C2759   1.401       .  A
C2758      N2763   1.437       .  S
C2759      C2760   1.401       .  A
C2759      H2764   1.084       .  S
C2760      C2765   1.477       .  S
C2760      C2761   1.413       .  A
C2761      C2762   1.400       .  A
C2761      N2766   1.439       .  S
C2762      H2767   1.084       .  S
N2763      H2783   1.042       .  S
N2763      H2784   1.045       .  S
C2765      C2768   1.399       .  A
C2765      C2772   1.409       .  A
N2766      H2781   1.045       .  S
N2766      H2782   1.043       .  S
C2768      C2769   1.402       .  A
C2768      H2773   1.084       .  S
C2769      C2770   1.412       .  A
C2769      N2774   1.432       .  S
C2770      C2771   1.406       .  A
C2771      C2772   1.406       .  A
C2771      H2775   1.084       .  S
C2772      N2776   1.437       .  S
N2774      H2777   1.046       .  S
N2774      H2778   1.046       .  S
N2776      H2779   1.046       .  S
N2776      H2780   1.045       .  S
