geometry optimzed in LAMMPS
_audit_creation_date              2020-11-30 
_audit_creation_method            'lammps2cif' 
_symmetry_space_group_name_H-M    'P1' 
_symmetry_Int_Tables_number       1 
_symmetry_cell_setting            triclinic 
loop_ 
_symmetry_equiv_pos_as_xyz 
  x,y,z 
_cell_length_a                    37.97544009 
_cell_length_b                    38.23881883894142 
_cell_length_c                    36.03177658130026 
_cell_angle_alpha                 89.8263236685466 
_cell_angle_beta                  90.10763770284866 
_cell_angle_gamma                 89.78236477459625 
loop_ 
_atom_site_label 
_atom_site_type_symbol 
_atom_site_fract_x 
_atom_site_fract_y 
_atom_site_fract_z 
_atom_site_charge 
N1          N  0.45906214  0.46021376  0.43084379    -0.06900
N2          N  0.45092899  0.43746696  0.40479413    -0.59000
N3          N  0.43469773  0.04044504  0.45597799    -0.06600
N4          N  0.41012455  0.06374279  0.44820162    -0.61100
N5          N  0.45902349  0.04039908  0.43009939    -0.06200
N6          N  0.45130829  0.06362370  0.40421598    -0.59000
N7          N  0.43472556  0.46052230  0.45674798    -0.05800
N8          N  0.40954386  0.43808543  0.44864087    -0.61500
C9          C  0.41995638  0.42380117  0.41609130     0.95300
C10         C  0.42080622  0.07824073  0.41583350     0.95100
N11         N  0.45882695  0.04184793  0.06844792    -0.07100
N12         N  0.45050872  0.06539128  0.09374002    -0.59600
N13         N  0.43460278  0.46103585  0.04440906    -0.05200
N14         N  0.41014083  0.43771598  0.05183935    -0.60800
N15         N  0.45857495  0.46145786  0.07081230    -0.07100
N16         N  0.45077360  0.43825273  0.09675622    -0.59900
N17         N  0.43460915  0.04097964  0.04232084    -0.04800
N18         N  0.40957138  0.06404780  0.04912298    -0.60900
Mn19       Mn  0.43357709  0.50040482  0.00019018     1.18400
C20         C  0.42000319  0.07943473  0.08095504     0.97400
C21         C  0.42067320  0.42334306  0.08433584     0.98000
N22         N  0.04242964  0.04033374  0.42898573    -0.07100
N23         N  0.05038450  0.06277550  0.40236872    -0.63400
N24         N  0.06661959  0.45976375  0.45644237    -0.05900
N25         N  0.09106728  0.43622881  0.44907309    -0.64100
N26         N  0.04222616  0.45966954  0.43055637    -0.06600
N27         N  0.04967633  0.43609138  0.40509706    -0.63700
N28         N  0.06676398  0.04057056  0.45496769    -0.05500
N29         N  0.09163908  0.06325969  0.44667986    -0.64400
Mn30       Mn  0.00069596  0.00056970  0.42931598     1.10700
C31         C  0.08113991  0.07694825  0.41379780     0.98600
C32         C  0.08006853  0.42132286  0.41705192     0.98700
N33         N  0.04212167  0.46230796  0.07084044    -0.06600
N34         N  0.05012327  0.43944466  0.09701393    -0.62000
N35         N  0.06719002  0.04077261  0.04184559    -0.06000
N36         N  0.09251141  0.06332795  0.04852321    -0.58700
N37         N  0.04311621  0.04205045  0.06800267    -0.07300
N38         N  0.05184545  0.06571006  0.09301987    -0.61600
N39         N  0.06623215  0.46196687  0.04474007    -0.06300
N40         N  0.09097910  0.43892509  0.05270207    -0.58800
Mn41       Mn  0.00096027  0.00216603  0.07049045     1.20200
Mn42       Mn  0.06761595  0.00009328  0.99951101     1.10100
Cl43       Cl  0.00088262  0.00040460  0.99967810    -0.86700
C44         C  0.08061642  0.42480716  0.08536179     0.95600
C45         C  0.08260923  0.07914090  0.08024417     0.95400
N46         N  0.29269321  0.28993750  0.17905856    -0.06900
N47         N  0.30045225  0.31310149  0.15304959    -0.59000
N48         N  0.31780423  0.21069119  0.20642401    -0.06600
N49         N  0.34291379  0.18772345  0.19947773    -0.61100
N50         N  0.29369455  0.20999724  0.18017889    -0.06200
N51         N  0.30213640  0.18665513  0.15470218    -0.59000
N52         N  0.31670118  0.29040413  0.20542972    -0.05800
N53         N  0.34115372  0.31371607  0.19789202    -0.61500
C54         C  0.33057353  0.32803863  0.16537430     0.95300
C55         C  0.33263427  0.17255038  0.16745517     0.95100
N56         N  0.29224132  0.21151058  0.31944558    -0.07100
N57         N  0.29961737  0.18807566  0.34519436    -0.59600
N58         N  0.31648900  0.29121648  0.29346986    -0.05200
N59         N  0.34116547  0.31410200  0.30189982    -0.60800
N60         N  0.29192280  0.29110297  0.31912716    -0.07100
N61         N  0.29939200  0.31391647  0.34534529    -0.59900
N62         N  0.31667920  0.21150412  0.29370505    -0.04800
N63         N  0.34103369  0.18799757  0.30143335    -0.60900
Mn64       Mn  0.31772494  0.25103528  0.24975995     1.18400
C65         C  0.33004603  0.17334601  0.33361660     0.97400
C66         C  0.33018704  0.32816379  0.33438509     0.98000
N67         N  0.20942488  0.20914520  0.18064985    -0.07100
N68         N  0.20084290  0.18559720  0.15543548    -0.63400
N69         N  0.18498729  0.28918948  0.20517825    -0.05900
N70         N  0.16014055  0.31211411  0.19718881    -0.64100
N71         N  0.20909459  0.28888527  0.17907497    -0.06600
N72         N  0.20098011  0.31166546  0.15286268    -0.63700
N73         N  0.18544154  0.20994636  0.20692255    -0.05500
N74         N  0.16040347  0.18714340  0.20017141    -0.64400
Mn75       Mn  0.25122076  0.24940345  0.17860983     1.10700
C76         C  0.17028022  0.17172964  0.16825137     0.98600
C77         C  0.17043139  0.32620710  0.16450177     0.98700
N78         N  0.20903623  0.29083768  0.31862833    -0.06600
N79         N  0.20121170  0.31393445  0.34440566    -0.62000
N80         N  0.18488359  0.21088139  0.29395925    -0.06000
N81         N  0.16013669  0.18795294  0.30189771    -0.58700
N82         N  0.20909402  0.21112805  0.32005340    -0.07300
N83         N  0.20118512  0.18842673  0.34641532    -0.62600
N84         N  0.18473550  0.29071754  0.29265635    -0.06300
N85         N  0.15992811  0.31380678  0.30030664    -0.58800
Mn86       Mn  0.25062102  0.25112219  0.32017940     1.20200
Mn87       Mn  0.18432000  0.25025089  0.24962210     1.10100
Cl88       Cl  0.25099948  0.25046730  0.24948199    -0.86700
C89         C  0.17068016  0.32843216  0.33258277     0.95600
C90         C  0.17058638  0.17411227  0.33471169     0.95400
C91         C  0.15387169  0.14444663  0.10859733    -0.06600
C92         C  0.14759358  0.14730235  0.14685343    -0.00600
C93         C  0.11951784  0.12790725  0.16292277    -0.09200
C94         C  0.09891972  0.10661112  0.13977986    -0.06600
C95         C  0.10526967  0.10366229  0.10155186    -0.00600
C96         C  0.13326692  0.12312757  0.08546567    -0.09100
C97         C  0.14181978  0.12190975  0.04423902     0.61300
H98         H  0.17522891  0.15934824  0.09668420     0.12000
H99         H  0.07758845  0.09167358  0.15168779     0.12000
C100        C  0.11105906  0.12893451  0.20420135     0.61500
F101        F  0.16612993  0.14712505  0.03421791    -0.23700
F102        F  0.11170310  0.12782766  0.02346006    -0.21000
F103        F  0.15600119  0.08962108  0.03546257    -0.20700
F104        F  0.09784265  0.16148487  0.21352116    -0.20700
F105        F  0.14107257  0.12186915  0.22475676    -0.21000
F106        F  0.08598810  0.10439063  0.21399578    -0.23700
C107        C  0.12163999  0.12709420  0.41249065    -0.06600
C108        C  0.10271677  0.10208015  0.39228620    -0.00600
C109        C  0.10701917  0.10023597  0.35320201    -0.09200
C110        C  0.12996026  0.12400608  0.33587614    -0.06600
C111        C  0.14892310  0.14898297  0.35610663    -0.00600
C112        C  0.14459188  0.15083876  0.39517581    -0.09100
C113        C  0.16312248  0.17818032  0.41859924     0.61300
H114        H  0.11819251  0.12790682  0.44235890     0.12000
H115        H  0.13337610  0.12323240  0.30600176     0.12000
C116        C  0.08846319  0.07291129  0.32977858     0.61500
F117        F  0.15184426  0.17761382  0.45511982    -0.23700
F118        F  0.15633922  0.21123607  0.40452041    -0.21000
F119        F  0.19900234  0.17191898  0.41856746    -0.20700
F120        F  0.05262190  0.07939344  0.32956362    -0.20700
F121        F  0.09493952  0.03986799  0.34403603    -0.21000
F122        F  0.09998812  0.07325684  0.29333304    -0.23700
C123        C  0.13455448  0.38905151  0.09053572    -0.06600
C124        C  0.10246121  0.39923859  0.10663146    -0.00600
C125        C  0.09314085  0.38531506  0.14186526    -0.09200
C126        C  0.11641220  0.36188042  0.15933014    -0.06600
C127        C  0.14851468  0.35170866  0.14323136    -0.00600
C128        C  0.15779499  0.36557901  0.10797068    -0.09100
C129        C  0.19208228  0.35655460  0.08864233     0.61300
H130        H  0.14155287  0.39973122  0.06376262     0.12000
H131        H  0.10942342  0.35120044  0.18610770     0.12000
C132        C  0.05875295  0.39417464  0.16108656     0.61500
F133        F  0.19609143  0.37429375  0.05536220    -0.23700
F134        F  0.19332478  0.32115115  0.08096912    -0.21000
F135        F  0.21980028  0.36576767  0.11132893    -0.20700
F136        F  0.03116298  0.38492933  0.13824750    -0.20700
F137        F  0.05733658  0.42954866  0.16887024    -0.21000
F138        F  0.05467921  0.37632161  0.19429204    -0.23700
C139        C  0.39477526  0.09843735  0.14067039    -0.06600
C140        C  0.39783350  0.10401887  0.10230742    -0.00600
C141        C  0.37943174  0.13216504  0.08539076    -0.09200
C142        C  0.35779145  0.15340288  0.10765160    -0.06600
C143        C  0.35479145  0.14789471  0.14606713    -0.00600
C144        C  0.37348799  0.11991543  0.16301997    -0.09100
C145        C  0.37043193  0.11210008  0.20426758     0.61300
H146        H  0.40907108  0.07677839  0.15303423     0.12000
H147        H  0.34349118  0.17503325  0.09523641     0.12000
C148        C  0.38371361  0.14071733  0.04442171     0.61500
F149        F  0.38590008  0.08040616  0.21355128    -0.23700
F150        F  0.33533746  0.11057043  0.21437613    -0.21000
F151        F  0.38706896  0.13794279  0.22442831    -0.20700
F152        F  0.36743794  0.11547248  0.02310747    -0.20700
F153        F  0.41911363  0.14204877  0.03549134    -0.21000
F154        F  0.36890433  0.17278059  0.03541159    -0.23700
C155        C  0.37618045  0.37347360  0.33687798    -0.06600
C156        C  0.35154666  0.35328733  0.35640634    -0.00600
C157        C  0.34974700  0.35628461  0.39571576    -0.09200
C158        C  0.37289341  0.37942599  0.41368826    -0.06600
C159        C  0.39781821  0.39929347  0.39415995    -0.00600
C160        C  0.39939355  0.39649525  0.35484888    -0.09100
C161        C  0.42476628  0.41786652  0.33142160     0.61300
H162        H  0.37718420  0.37097179  0.30704531     0.12000
H163        H  0.37189752  0.38196872  0.44352063     0.12000
C164        C  0.32453244  0.33471623  0.41915151     0.61500
F165        F  0.41941692  0.41297595  0.29377514    -0.23700
F166        F  0.45903913  0.40798412  0.33933392    -0.21000
F167        F  0.42022812  0.45311867  0.33862020    -0.20700
F168        F  0.33008443  0.29947928  0.41268648    -0.20700
F169        F  0.29013128  0.34354874  0.41052823    -0.21000
F170        F  0.32916734  0.34039944  0.45678263    -0.23700
C171        C  0.38505701  0.13973920  0.34076075    -0.06600
C172        C  0.35177198  0.14813275  0.35530410    -0.00600
C173        C  0.34143458  0.13341823  0.38985512    -0.09200
C174        C  0.36531974  0.11137601  0.40848289    -0.06600
C175        C  0.39872700  0.10313229  0.39401270    -0.00600
C176        C  0.40892996  0.11773859  0.35935766    -0.09100
C177        C  0.44461645  0.11081244  0.34159457     0.61300
H178        H  0.39259090  0.15086348  0.31431787     0.12000
H179        H  0.35776509  0.10021749  0.43490750     0.12000
C180        C  0.30565295  0.14038257  0.40745308     0.61500
F181        F  0.44916838  0.12966673  0.30908467    -0.23700
F182        F  0.44775794  0.07576670  0.33278296    -0.21000
F183        F  0.47123199  0.12043597  0.36571418    -0.20700
F184        F  0.27908785  0.13130354  0.38301754    -0.20700
F185        F  0.30269467  0.17534051  0.41674352    -0.21000
F186        F  0.30075299  0.12112080  0.43962608    -0.23700
C187        C  0.13799977  0.39436605  0.40436061    -0.06600
C188        C  0.10205424  0.39660399  0.39513008    -0.00600
C189        C  0.08893824  0.37621746  0.36527526    -0.09200
C190        C  0.11260489  0.35486341  0.34563765    -0.06600
C191        C  0.14855891  0.35275579  0.35477401    -0.00600
C192        C  0.16164478  0.37293903  0.38479299    -0.09100
C193        C  0.20024551  0.37259647  0.39628344     0.61300
H194        H  0.14773318  0.40993669  0.42712875     0.12000
H195        H  0.10290017  0.33925055  0.32288423     0.12000
C196        C  0.05026753  0.37614249  0.35413399     0.61500
F197        F  0.20747427  0.39735302  0.42317953    -0.23700
F198        F  0.22129033  0.37987822  0.36594108    -0.21000
F199        F  0.20905902  0.34022973  0.41087264    -0.20700
F200        F  0.04092911  0.40839333  0.33964980    -0.20700
F201        F  0.02960638  0.36860025  0.38469307    -0.21000
F202        F  0.04311689  0.35132024  0.32727333    -0.23700
C203        C  0.36191547  0.40187969  0.10213695    -0.06600
C204        C  0.39859627  0.39855278  0.10574633    -0.00600
C205        C  0.41265177  0.37177148  0.12866814    -0.09200
C206        C  0.38934250  0.34938575  0.14736313    -0.06600
C207        C  0.35264930  0.35275173  0.14382140    -0.00600
C208        C  0.33859924  0.37952659  0.12086072    -0.09100
C209        C  0.29932824  0.38466583  0.11594746     0.61300
H210        H  0.35151458  0.42240492  0.08447899     0.12000
H211        H  0.39976017  0.32886202  0.16501169     0.12000
C212        C  0.45192972  0.36674885  0.13363731     0.61500
F213        F  0.29141266  0.41512883  0.09673221    -0.23700
F214        F  0.28310815  0.38656926  0.15024858    -0.21000
F215        F  0.28602680  0.35686373  0.09601693    -0.20700
F216        F  0.46507764  0.39451179  0.15375089    -0.20700
F217        F  0.46823601  0.36507820  0.09936275    -0.21000
F218        F  0.45991624  0.33622438  0.15269829    -0.23700
N219        N  0.45935029  0.46036305  0.93081110    -0.06900
N220        N  0.45193019  0.43752101  0.90461063    -0.59000
N221        N  0.43502941  0.03932086  0.95533235    -0.06600
N222        N  0.41055595  0.06273801  0.94774424    -0.61100
N223        N  0.45921815  0.03912874  0.92932637    -0.06200
N224        N  0.45144394  0.06234783  0.90341801    -0.59000
N225        N  0.43477331  0.46024437  0.95644656    -0.05800
N226        N  0.41013351  0.43732392  0.94800843    -0.61500
C227        C  0.42114992  0.42322779  0.91554202     0.95300
C228        C  0.42111007  0.07717128  0.91532974     0.95100
N229        N  0.45809799  0.04212380  0.56945373    -0.07100
N230        N  0.44957532  0.06532535  0.59505135    -0.59600
N231        N  0.43510933  0.46171745  0.54480056    -0.05200
N232        N  0.41039447  0.43884397  0.55296096    -0.60800
N233        N  0.45931374  0.46215577  0.57093682    -0.07100
N234        N  0.45137629  0.43944698  0.59732714    -0.59900
N235        N  0.43399203  0.04147311  0.54320350    -0.04800
N236        N  0.40883611  0.06437606  0.55018682    -0.60900
Mn237      Mn  0.43426082  0.50085114  0.50008283     1.18400
C238        C  0.41909526  0.07941360  0.58227071     0.97400
C239        C  0.42076204  0.42490258  0.58581298     0.98000
N240        N  0.04281576  0.03894996  0.92878863    -0.07100
N241        N  0.05074036  0.06168886  0.90245528    -0.63400
N242        N  0.06648038  0.46069273  0.95721359    -0.05900
N243        N  0.09134436  0.43773741  0.94937156    -0.64100
N244        N  0.04216341  0.46065156  0.93127088    -0.06600
N245        N  0.05003381  0.43772332  0.90535332    -0.63700
N246        N  0.06713231  0.03909366  0.95480332    -0.05500
N247        N  0.09191603  0.06198289  0.94684769    -0.64400
Mn248      Mn  0.00085965  0.99919875  0.92895061     1.10700
C249        C  0.08142630  0.07590192  0.91409850     0.98600
C250        C  0.08066084  0.42329477  0.91697257     0.98700
N251        N  0.04298512  0.46244462  0.57012521    -0.06600
N252        N  0.05100707  0.43984850  0.59652079    -0.62000
N253        N  0.06626956  0.04190072  0.54227769    -0.06000
N254        N  0.09130145  0.06469426  0.54912129    -0.58700
N255        N  0.04217057  0.04282348  0.56843432    -0.07300
N256        N  0.05056016  0.06644719  0.59358139    -0.61600
N257        N  0.06693095  0.46165199  0.54386525    -0.06300
N258        N  0.09155169  0.43848842  0.55190074    -0.58800
Mn259      Mn  0.00054694  0.00270223  0.57095517     1.20200
Mn260      Mn  0.06731241  0.00140387  0.49970647     1.10100
Cl261      Cl  0.00058797  0.00140469  0.50006361    -0.86700
C262        C  0.08124582  0.42479289  0.58477813     0.95600
C263        C  0.08116190  0.08022559  0.58091251     0.95400
N264        N  0.29195793  0.28893250  0.67927714    -0.06900
N265        N  0.29990505  0.31169307  0.65295622    -0.59000
N266        N  0.31617274  0.20971806  0.70706631    -0.06600
N267        N  0.34124957  0.18682840  0.69991100    -0.61100
N268        N  0.29197819  0.20920267  0.68090304    -0.06200
N269        N  0.30035324  0.18607351  0.65519277    -0.59000
N270        N  0.31617346  0.28928688  0.70539776    -0.05800
N271        N  0.34090209  0.31216360  0.69730789    -0.61500
C272        C  0.33052778  0.32618609  0.66450309     0.95300
C273        C  0.33083686  0.17191413  0.66784852     0.95100
N274        N  0.29197513  0.21114020  0.82038617    -0.07100
N275        N  0.29979380  0.18800430  0.84636919    -0.59600
N276        N  0.31665621  0.29047902  0.79330766    -0.05200
N277        N  0.34182399  0.31296744  0.80131707    -0.60800
N278        N  0.29231917  0.29085845  0.81919788    -0.07100
N279        N  0.30043436  0.31372389  0.84512910    -0.59900
N280        N  0.31606983  0.21083680  0.79427456    -0.04800
N281        N  0.34055293  0.18742968  0.80191706    -0.60900
Mn282      Mn  0.31697589  0.25014235  0.75002375     1.18400
C283        C  0.33006865  0.17310830  0.83443099     0.97400
C284        C  0.33140358  0.32738945  0.83380084     0.98000
N285        N  0.20778102  0.20928951  0.68197817    -0.07100
N286        N  0.19903830  0.18577596  0.65684413    -0.63400
N287        N  0.18441362  0.28972962  0.70626026    -0.05900
N288        N  0.15985786  0.31297166  0.69824808    -0.64100
N289        N  0.20834558  0.28889495  0.67998813    -0.06600
N290        N  0.20037988  0.31153140  0.65360572    -0.63700
N291        N  0.18373214  0.21047758  0.70816899    -0.05500
N292        N  0.15837883  0.18798343  0.70137805    -0.64400
Mn293      Mn  0.24997488  0.24898080  0.67947515     1.10700
C294        C  0.16828665  0.17233648  0.66955954     0.98600
C295        C  0.17018861  0.32666577  0.66537256     0.98700
N296        N  0.20927834  0.29143818  0.81953316    -0.06600
N297        N  0.20192052  0.31495691  0.84506282    -0.62000
N298        N  0.18406979  0.21152544  0.79526321    -0.06000
N299        N  0.15944366  0.18840517  0.80303320    -0.58700
N300        N  0.20846549  0.21153651  0.82119626    -0.07300
N301        N  0.20077660  0.18846218  0.84728111    -0.62600
N302        N  0.18483227  0.29141526  0.79371543    -0.06300
N303        N  0.16043109  0.31493735  0.80123705    -0.58800
Mn304      Mn  0.25051740  0.25121591  0.82103081     1.20200
Mn305      Mn  0.18352673  0.25086762  0.75085150     1.10100
Cl306      Cl  0.25025975  0.25029156  0.75030803    -0.86700
C307        C  0.17147275  0.32972571  0.83331408     0.95600
C308        C  0.17013601  0.17419307  0.83557507     0.95400
C309        C  0.15165183  0.14585981  0.60969242    -0.06600
C310        C  0.14565703  0.14804266  0.64805446    -0.00600
C311        C  0.11810681  0.12798594  0.66412106    -0.09200
C312        C  0.09757351  0.10679035  0.64083483    -0.06600
C313        C  0.10359637  0.10461077  0.60247639    -0.00600
C314        C  0.13114948  0.12464391  0.58641996    -0.09100
C315        C  0.13919934  0.12422431  0.54505107     0.61300
H316        H  0.17266115  0.16125367  0.59780085     0.12000
H317        H  0.07655350  0.09139213  0.65270887     0.12000
C318        C  0.11008113  0.12835094  0.70548840     0.61500
F319        F  0.16321500  0.14976680  0.53521529    -0.23700
F320        F  0.10876218  0.13030494  0.52483825    -0.21000
F321        F  0.15349468  0.09221500  0.53537487    -0.20700
F322        F  0.09559293  0.16027738  0.71514203    -0.20700
F323        F  0.14055254  0.12248106  0.72570011    -0.21000
F324        F  0.08625047  0.10262803  0.71533710    -0.23700
C325        C  0.12136953  0.12660097  0.91307049    -0.06600
C326        C  0.10299100  0.10121580  0.89281299    -0.00600
C327        C  0.10760011  0.09929774  0.85379044    -0.09200
C328        C  0.13037261  0.12329394  0.83652810    -0.06600
C329        C  0.14869452  0.14872831  0.85679296    -0.00600
C330        C  0.14384943  0.15081795  0.89576864    -0.09100
C331        C  0.16104499  0.17916882  0.91897057     0.61300
H332        H  0.11768326  0.12749297  0.94290663     0.12000
H333        H  0.13408082  0.12240686  0.80669517     0.12000
C334        C  0.08946462  0.07164490  0.83043787     0.61500
F335        F  0.14892476  0.17904359  0.95518865    -0.23700
F336        F  0.15359897  0.21170759  0.90391142    -0.21000
F337        F  0.19708864  0.17401676  0.91995808    -0.20700
F338        F  0.05352413  0.07756741  0.83023339    -0.20700
F339        F  0.09646365  0.03873284  0.84479335    -0.21000
F340        F  0.10093147  0.07210827  0.79398983    -0.23700
C341        C  0.13645826  0.39133024  0.59218115    -0.06600
C342        C  0.10294727  0.39939403  0.60634006    -0.00600
C343        C  0.09191791  0.38345660  0.64001097    -0.09200
C344        C  0.11500373  0.36016897  0.65796603    -0.06600
C345        C  0.14851398  0.35209795  0.64380959    -0.00600
C346        C  0.15955869  0.36806740  0.61015572    -0.09100
C347        C  0.19556306  0.36152815  0.59320091     0.61300
H348        H  0.14471290  0.40358782  0.56659155     0.12000
H349        H  0.10674172  0.34790703  0.68354745     0.12000
C350        C  0.05595662  0.39009351  0.65703121     0.61500
F351        F  0.20142340  0.38192893  0.56201554    -0.23700
F352        F  0.19854087  0.32690812  0.58257547    -0.21000
F353        F  0.22129268  0.36962272  0.61890766    -0.20700
F354        F  0.03014673  0.38195395  0.63142623    -0.20700
F355        F  0.05305389  0.42475180  0.66754201    -0.21000
F356        F  0.05014548  0.36980672  0.68830706    -0.23700
C357        C  0.39047608  0.09620907  0.64108429    -0.06600
C358        C  0.39684992  0.10390586  0.60357914    -0.00600
C359        C  0.38129542  0.13393459  0.58716693    -0.09200
C360        C  0.35938276  0.15521282  0.60905223    -0.06600
C361        C  0.35298588  0.14746545  0.64650478    -0.00600
C362        C  0.36847223  0.11744704  0.66292953    -0.09100
C363        C  0.36074865  0.10723770  0.70288921     0.61300
H364        H  0.40248196  0.07302095  0.65301771     0.12000
H365        H  0.34735451  0.17841236  0.59715945     0.12000
C366        C  0.38857238  0.14403924  0.54710498     0.61500
F367        F  0.37380712  0.07434462  0.71144318    -0.23700
F368        F  0.32472954  0.10682488  0.70867730    -0.21000
F369        F  0.37608227  0.13093155  0.72683160    -0.20700
F370        F  0.37267687  0.12041975  0.52349705    -0.20700
F371        F  0.42449488  0.14416784  0.54072884    -0.21000
F372        F  0.37566306  0.17704094  0.53870801    -0.23700
C373        C  0.37950690  0.37075253  0.83639623    -0.06600
C374        C  0.35356102  0.35197412  0.85569585    -0.00600
C375        C  0.35095205  0.35592327  0.89483706    -0.09200
C376        C  0.37419091  0.37890338  0.91282250    -0.06600
C377        C  0.39982626  0.39802560  0.89351767    -0.00600
C378        C  0.40268329  0.39387420  0.85438868    -0.09100
C379        C  0.42907566  0.41417759  0.83110403     0.61300
H380        H  0.38129497  0.36738566  0.80670219     0.12000
H381        H  0.37240364  0.38220742  0.94251891     0.12000
C382        C  0.32442908  0.33583675  0.91813366     0.61500
F383        F  0.42567078  0.40720809  0.79357955    -0.23700
F384        F  0.46300943  0.40513739  0.84138636    -0.21000
F385        F  0.42390064  0.44970668  0.83592606    -0.20700
F386        F  0.32859344  0.30028157  0.91252352    -0.20700
F387        F  0.29061374  0.34599352  0.90857984    -0.21000
F388        F  0.32859111  0.34198251  0.95572988    -0.23700
C389        C  0.38671802  0.14238746  0.84315077    -0.06600
C390        C  0.35218199  0.14804522  0.85596185    -0.00600
C391        C  0.34067774  0.13033385  0.88842824    -0.09200
C392        C  0.36453946  0.10808581  0.90679803    -0.06600
C393        C  0.39903697  0.10234019  0.89390861    -0.00600
C394        C  0.41047224  0.11989491  0.86133485    -0.09100
C395        C  0.44733143  0.11549131  0.84544631     0.61300
H396        H  0.39526371  0.15593233  0.81837357     0.12000
H397        H  0.35601590  0.09458757  0.93161389     0.12000
C398        C  0.30350460  0.13394683  0.90373797     0.61500
F399        F  0.45319111  0.13737477  0.81541087    -0.23700
F400        F  0.45200807  0.08150643  0.83333459    -0.21000
F401        F  0.47220760  0.12337659  0.87221179    -0.20700
F402        F  0.27924767  0.12558453  0.87651177    -0.20700
F403        F  0.29784447  0.16777452  0.91586463    -0.21000
F404        F  0.29766693  0.11185542  0.93361572    -0.23700
C405        C  0.13757287  0.39335458  0.90703325    -0.06600
C406        C  0.10281459  0.39891399  0.89479088    -0.00600
C407        C  0.09111867  0.38203183  0.86191903    -0.09200
C408        C  0.11488782  0.36038118  0.84283041    -0.06600
C409        C  0.14959108  0.35463434  0.85518798    -0.00600
C410        C  0.16134027  0.37167561  0.88795223    -0.09100
C411        C  0.19861445  0.36773537  0.90305404     0.61300
H412        H  0.14626790  0.40638349  0.93196431     0.12000
H413        H  0.10617530  0.34741111  0.81787347     0.12000
C414        C  0.05387381  0.38608844  0.84673073     0.61500
F415        F  0.20463136  0.38905481  0.93339750    -0.23700
F416        F  0.22267212  0.37681070  0.87593093    -0.21000
F417        F  0.20436774  0.33362385  0.91445317    -0.20700
F418        F  0.04823917  0.42025502  0.83542031    -0.20700
F419        F  0.02971964  0.37698996  0.87375166    -0.21000
F420        F  0.04785560  0.36485533  0.81632565    -0.23700
C421        C  0.37057464  0.38382682  0.58805105    -0.06600
C422        C  0.39890917  0.39925303  0.60707659    -0.00600
C423        C  0.40408218  0.39077845  0.64516869    -0.09200
C424        C  0.38067974  0.36730436  0.66233544    -0.06600
C425        C  0.35236353  0.35186806  0.64329568    -0.00600
C426        C  0.34716733  0.36036543  0.60522102    -0.09100
C427        C  0.31748234  0.34495615  0.58222488     0.61300
H428        H  0.36680561  0.39029189  0.55908368     0.12000
H429        H  0.38444798  0.36081866  0.69129964     0.12000
C430        C  0.43375632  0.40618516  0.66817721     0.61500
F431        F  0.31787904  0.35672144  0.54584512    -0.23700
F432        F  0.28551944  0.35457178  0.59726926    -0.21000
F433        F  0.32040120  0.30890259  0.58153646    -0.20700
F434        F  0.43096412  0.44224879  0.66869628    -0.20700
F435        F  0.46572091  0.39639480  0.65325752    -0.21000
F436        F  0.43321393  0.39458189  0.70461624    -0.23700
N437        N  0.45927317  0.96077386  0.43069837    -0.06900
N438        N  0.45147777  0.93812533  0.40442638    -0.59000
N439        N  0.43514291  0.54017356  0.45583843    -0.06600
N440        N  0.41068629  0.56362698  0.44823208    -0.61100
N441        N  0.45928110  0.53993154  0.42976880    -0.06200
N442        N  0.45151891  0.56317014  0.40387438    -0.59000
N443        N  0.43485628  0.96074958  0.45653338    -0.05800
N444        N  0.40994512  0.93808182  0.44821470    -0.61500
C445        C  0.42064692  0.92412671  0.41561138     0.95300
C446        C  0.42121406  0.57803920  0.41577223     0.95100
N447        N  0.45769875  0.54133093  0.06984612    -0.07100
N448        N  0.44920560  0.56452160  0.09545991    -0.59600
N449        N  0.43510279  0.96133814  0.04440654    -0.05200
N450        N  0.41053968  0.93829458  0.05248379    -0.60800
N451        N  0.45917394  0.96205790  0.07066535    -0.07100
N452        N  0.45129636  0.93937699  0.09706518    -0.59900
N453        N  0.43357303  0.54068433  0.04360883    -0.04800
N454        N  0.40840715  0.56354603  0.05069419    -0.60900
Mn455      Mn  0.43415970  0.00019824  0.99960679     1.18400
C456        C  0.41866662  0.57858870  0.08279112     0.97400
C457        C  0.42088428  0.92455357  0.08542114     0.98000
N458        N  0.04278517  0.53962438  0.42882538    -0.07100
N459        N  0.05044872  0.56268123  0.40271217    -0.63400
N460        N  0.06660101  0.96072517  0.45687728    -0.05900
N461        N  0.09128095  0.93744384  0.44941486    -0.64100
N462        N  0.04227004  0.96057689  0.43090853    -0.06600
N463        N  0.04996819  0.93721847  0.40531324    -0.63700
N464        N  0.06716474  0.53969442  0.45476571    -0.05500
N465        N  0.09175966  0.56283562  0.44697593    -0.64400
Mn466      Mn  0.00083860  0.49987185  0.42903572     1.10700
C467        C  0.08106898  0.57700157  0.41440906     0.98600
C468        C  0.08042117  0.92262035  0.41729943     0.98700
N469        N  0.04276463  0.96231542  0.07059609    -0.06600
N470        N  0.05078878  0.93989258  0.09721506    -0.62000
N471        N  0.06601802  0.54123187  0.04308165    -0.06000
N472        N  0.09113704  0.56394431  0.04985245    -0.58700
N473        N  0.04204829  0.54205864  0.06936555    -0.07300
N474        N  0.05072456  0.56553656  0.09461475    -0.61600
N475        N  0.06689051  0.96160561  0.04449576    -0.06300
N476        N  0.09176346  0.93882483  0.05290015    -0.58800
Mn477      Mn  0.00012989  0.50189539  0.07135430     1.20200
Mn478      Mn  0.06699121  0.50101573  0.00033001     1.10100
Cl479      Cl  0.00030795  0.50092767  0.00048626    -0.86700
C480        C  0.08143112  0.92536335  0.08585359     0.95600
C481        C  0.08132846  0.57932919  0.08180809     0.95400
N482        N  0.29221688  0.78914866  0.17943270    -0.06900
N483        N  0.30020747  0.81170515  0.15294828    -0.59000
N484        N  0.31673870  0.71023250  0.20782405    -0.06600
N485        N  0.34179100  0.68717686  0.20101780    -0.61100
N486        N  0.29253977  0.70938572  0.18167711    -0.06200
N487        N  0.30088418  0.68587476  0.15635928    -0.59000
N488        N  0.31628443  0.78985369  0.20569720    -0.05800
N489        N  0.34094793  0.81276633  0.19754628    -0.61500
C490        C  0.33067778  0.82644180  0.16455504     0.95300
C491        C  0.33138084  0.67182662  0.16915729     0.95100
N492        N  0.29204798  0.71216076  0.32082449    -0.07100
N493        N  0.29974371  0.68886890  0.34668068    -0.59600
N494        N  0.31652906  0.79166751  0.29372007    -0.05200
N495        N  0.34154470  0.81435747  0.30169057    -0.60800
N496        N  0.29217032  0.79194785  0.31961838    -0.07100
N497        N  0.30013422  0.81486707  0.34559801    -0.59900
N498        N  0.31623036  0.71190874  0.29481191    -0.04800
N499        N  0.34062306  0.68839263  0.30236798    -0.60900
Mn500      Mn  0.31716717  0.75102664  0.25052573     1.18400
C501        C  0.33004453  0.67396540  0.33478291     0.97400
C502        C  0.33100215  0.82869261  0.33416118     0.98000
N503        N  0.20824249  0.70916323  0.18217101    -0.07100
N504        N  0.19956682  0.68547278  0.15717055    -0.63400
N505        N  0.18442302  0.78960273  0.20562528    -0.05900
N506        N  0.15956471  0.81240928  0.19724995    -0.64100
N507        N  0.20855901  0.78890872  0.17953451    -0.06600
N508        N  0.20054568  0.81136455  0.15294273    -0.63700
N509        N  0.18416019  0.71041765  0.20832291    -0.05500
N510        N  0.15887532  0.68781342  0.20164390    -0.64400
Mn511      Mn  0.25038314  0.74905489  0.17964072     1.10700
C512        C  0.16882100  0.67199864  0.16993141     0.98600
C513        C  0.16990795  0.82590110  0.16431736     0.98700
N514        N  0.20903569  0.79227424  0.31916822    -0.06600
N515        N  0.20145543  0.81592097  0.34449537    -0.62000
N516        N  0.18417570  0.71222101  0.29540159    -0.06000
N517        N  0.15943241  0.68928462  0.30333605    -0.58700
N518        N  0.20845242  0.71243221  0.32145289    -0.07300
N519        N  0.20054454  0.68967985  0.34778445    -0.62600
N520        N  0.18475921  0.79206578  0.29314070    -0.06300
N521        N  0.16025361  0.81560415  0.30027791    -0.58800
Mn522      Mn  0.25043576  0.75216730  0.32123001     1.20200
Mn523      Mn  0.18369876  0.75115525  0.25063181     1.10100
Cl524      Cl  0.25043345  0.75086859  0.25046792    -0.86700
C525        C  0.17114699  0.83062966  0.33226028     0.95600
C526        C  0.16990031  0.67539458  0.33610872     0.95400
C527        C  0.15271142  0.64439845  0.11039815    -0.06600
C528        C  0.14624450  0.64740928  0.14860347    -0.00600
C529        C  0.11824133  0.62791646  0.16463478    -0.09200
C530        C  0.09772770  0.60654529  0.14147475    -0.06600
C531        C  0.10407186  0.60368236  0.10323446    -0.00600
C532        C  0.13220267  0.62304531  0.08722218    -0.09100
C533        C  0.14080985  0.62193630  0.04597684     0.61300
H534        H  0.17405491  0.65934362  0.09853139     0.12000
H535        H  0.07635460  0.59163963  0.15334846     0.12000
C536        C  0.10954102  0.62919560  0.20581985     0.61500
F537        F  0.16606035  0.64632687  0.03625573    -0.23700
F538        F  0.11091110  0.62915075  0.02529499    -0.21000
F539        F  0.15387689  0.58930689  0.03673643    -0.20700
F540        F  0.09528367  0.66148221  0.21446435    -0.20700
F541        F  0.13958762  0.62335514  0.22673266    -0.21000
F542        F  0.08522629  0.60396571  0.21579145    -0.23700
C543        C  0.12117073  0.62761568  0.41359622    -0.06600
C544        C  0.10249471  0.60251504  0.39322093    -0.00600
C545        C  0.10699748  0.60079569  0.35417478    -0.09200
C546        C  0.12962508  0.62494252  0.33697034    -0.06600
C547        C  0.14834573  0.65000960  0.35734093    -0.00600
C548        C  0.14399505  0.65161000  0.39641645    -0.09100
C549        C  0.16242451  0.67893945  0.41993943     0.61300
H550        H  0.11768044  0.62825844  0.44346569     0.12000
H551        H  0.13309355  0.62429531  0.30709744     0.12000
C552        C  0.08917449  0.57299898  0.33074183     0.61500
F553        F  0.15122626  0.67814875  0.45647468    -0.23700
F554        F  0.15544825  0.71202182  0.40602839    -0.21000
F555        F  0.19833958  0.67286963  0.41978676    -0.20700
F556        F  0.05319763  0.57867027  0.33025444    -0.20700
F557        F  0.09631199  0.54015685  0.34520162    -0.21000
F558        F  0.10091444  0.57345641  0.29438691    -0.23700
C559        C  0.12766671  0.88016904  0.08692089    -0.06600
C560        C  0.10289503  0.89971003  0.10712107    -0.00600
C561        C  0.10086313  0.89529096  0.14620897    -0.09200
C562        C  0.12369099  0.87113922  0.16328378    -0.06600
C563        C  0.14845746  0.85158875  0.14307681    -0.00600
C564        C  0.15049658  0.85602479  0.10399267    -0.09100
C565        C  0.17573722  0.83515566  0.07985205     0.61300
H566        H  0.12891732  0.88384862  0.05718722     0.12000
H567        H  0.12243484  0.86745303  0.19301710     0.12000
C568        C  0.07562082  0.91617246  0.17033954     0.61500
F569        F  0.17112895  0.84223058  0.04243163    -0.23700
F570        F  0.17023579  0.79974200  0.08507792    -0.21000
F571        F  0.21009664  0.84347503  0.08881902    -0.20700
F572        F  0.04126406  0.90779928  0.16142069    -0.20700
F573        F  0.08106853  0.95158614  0.16504601    -0.21000
F574        F  0.08027540  0.90916488  0.20776755    -0.23700
C575        C  0.39309325  0.59743925  0.14252776    -0.06600
C576        C  0.39652776  0.60321958  0.10419761    -0.00600
C577        C  0.37830078  0.63150612  0.08727951    -0.09200
C578        C  0.35700996  0.65303443  0.10956407    -0.06600
C579        C  0.35352811  0.64720604  0.14784285    -0.00600
C580        C  0.37147475  0.61876039  0.16473155    -0.09100
C581        C  0.36678400  0.61006291  0.20561416     0.61300
H582        H  0.40705944  0.57557788  0.15490934     0.12000
H583        H  0.34305150  0.67492211  0.09722346     0.12000
C584        C  0.38187650  0.63956110  0.04613273     0.61500
F585        F  0.38104604  0.57773764  0.21453969    -0.23700
F586        F  0.33130981  0.60922057  0.21429459    -0.21000
F587        F  0.38329731  0.63496763  0.22717748    -0.20700
F588        F  0.36512883  0.61405585  0.02558965    -0.20700
F589        F  0.41709211  0.64072089  0.03642846    -0.21000
F590        F  0.36690133  0.67150207  0.03692777    -0.23700
C591        C  0.37419612  0.87682072  0.33619449    -0.06600
C592        C  0.35294045  0.85333721  0.35601414    -0.00600
C593        C  0.35491564  0.85263656  0.39541151    -0.09200
C594        C  0.37792266  0.87586617  0.41336459    -0.06600
C595        C  0.39902810  0.89943167  0.39358720    -0.00600
C596        C  0.39710771  0.90018578  0.35419384    -0.09100
C597        C  0.41816458  0.92597797  0.33100458     0.61300
H598        H  0.37253821  0.87683070  0.30624983     0.12000
H599        H  0.37959573  0.87585630  0.44330920     0.12000
C600        C  0.33355311  0.82728167  0.41877682     0.61500
F601        F  0.40907807  0.92466182  0.29380237    -0.23700
F602        F  0.45368476  0.91830372  0.33381237    -0.21000
F603        F  0.41197753  0.95973300  0.34318365    -0.20700
F604        F  0.33888287  0.79340960  0.40655369    -0.20700
F605        F  0.29820643  0.83579674  0.41629621    -0.21000
F606        F  0.34301562  0.82836779  0.45589147    -0.23700
C607        C  0.38591385  0.64151262  0.34221637    -0.06600
C608        C  0.35209557  0.64874215  0.35622552    -0.00600
C609        C  0.34144778  0.63277702  0.39001251    -0.09200
C610        C  0.36526646  0.61034240  0.40820592    -0.06600
C611        C  0.39912506  0.60319334  0.39426148    -0.00600
C612        C  0.40988119  0.61938977  0.36062140    -0.09100
C613        C  0.44636392  0.61425093  0.34400067     0.61300
H614        H  0.39383647  0.65374158  0.31645638     0.12000
H615        H  0.35731615  0.59805516  0.43392270     0.12000
C616        C  0.30540511  0.63891155  0.40728770     0.61500
F617        F  0.45158539  0.63491868  0.31287490    -0.23700
F618        F  0.45080363  0.57981787  0.33330597    -0.21000
F619        F  0.47180433  0.62319408  0.36977945    -0.20700
F620        F  0.27924134  0.63046522  0.38212914    -0.20700
F621        F  0.30211709  0.67353469  0.41777115    -0.21000
F622        F  0.30022876  0.61861414  0.43868515    -0.23700
C623        C  0.13901500  0.89833893  0.40226272    -0.06600
C624        C  0.10259226  0.89836575  0.39513033    -0.00600
C625        C  0.08900580  0.87624156  0.36699125    -0.09200
C626        C  0.11265616  0.85523925  0.34692871    -0.06600
C627        C  0.14904610  0.85512371  0.35415904    -0.00600
C628        C  0.16265022  0.87727121  0.38224130    -0.09100
C629        C  0.20180035  0.87945261  0.39096763     0.61300
H630        H  0.14907697  0.91534888  0.42368217     0.12000
H631        H  0.10261195  0.83820453  0.32552502     0.12000
C632        C  0.04984241  0.87379651  0.35841168     0.61500
F633        F  0.20932035  0.90642045  0.41524920    -0.23700
F634        F  0.22059922  0.88540140  0.35871455    -0.21000
F635        F  0.21308165  0.84864059  0.40736535    -0.20700
F636        F  0.03809906  0.90474916  0.34270360    -0.20700
F637        F  0.03131883  0.86703474  0.39065770    -0.21000
F638        F  0.04248239  0.84721160  0.33359591    -0.23700
C639        C  0.37089964  0.88331147  0.08770828    -0.06600
C640        C  0.39914006  0.89893490  0.10671896    -0.00600
C641        C  0.40430331  0.89076093  0.14487073    -0.09200
C642        C  0.38081673  0.86749366  0.16218797    -0.06600
C643        C  0.35253190  0.85192555  0.14319792    -0.00600
C644        C  0.34738505  0.86007815  0.10503883    -0.09100
C645        C  0.31769332  0.84449487  0.08211224     0.61300
H646        H  0.36725845  0.88948804  0.05865189     0.12000
H647        H  0.38446805  0.86131046  0.19124012     0.12000
C648        C  0.43393889  0.90641352  0.16782456     0.61500
F649        F  0.31808009  0.85615945  0.04569131    -0.23700
F650        F  0.28558264  0.85399233  0.09711129    -0.21000
F651        F  0.32084374  0.80844835  0.08149290    -0.20700
F652        F  0.43065027  0.94244717  0.16850553    -0.20700
F653        F  0.46608239  0.89705917  0.15280825    -0.21000
F654        F  0.43359874  0.89469342  0.20422695    -0.23700
N655        N  0.45928742  0.95934578  0.93057023    -0.06900
N656        N  0.45150165  0.93633357  0.90463972    -0.59000
N657        N  0.43454639  0.53992512  0.95628593    -0.06600
N658        N  0.41008826  0.56330619  0.94849638    -0.61100
N659        N  0.45896950  0.53993062  0.93053372    -0.06200
N660        N  0.45148498  0.56325553  0.90470984    -0.59000
N661        N  0.43485237  0.95959842  0.95636908    -0.05800
N662        N  0.40992052  0.93685260  0.94829611    -0.61500
C663        C  0.42061017  0.92243588  0.91589031     0.95300
C664        C  0.42101700  0.57791349  0.91627368     0.95100
N665        N  0.45910464  0.54193297  0.56916694    -0.07100
N666        N  0.45073284  0.56516431  0.59477623    -0.59600
N667        N  0.43497138  0.96177400  0.54475417    -0.05200
N668        N  0.41038899  0.93875749  0.55284607    -0.60800
N669        N  0.45908754  0.96235263  0.57098294    -0.07100
N670        N  0.45122321  0.93963043  0.59737457    -0.59900
N671        N  0.43491677  0.54133542  0.54300248    -0.04800
N672        N  0.40985153  0.56427875  0.55004676    -0.60900
Mn673      Mn  0.43388046  0.00100588  0.50010045     1.18400
C674        C  0.42025963  0.57930619  0.58205592     0.97400
C675        C  0.42075564  0.92490990  0.58574150     0.98000
N676        N  0.04215706  0.54030828  0.93000751    -0.07100
N677        N  0.05004165  0.56301390  0.90364967    -0.63400
N678        N  0.06649580  0.95927495  0.95692554    -0.05900
N679        N  0.09098382  0.93578037  0.94959302    -0.64100
N680        N  0.04219829  0.95918707  0.93093680    -0.06600
N681        N  0.04973305  0.93568773  0.90547140    -0.63700
N682        N  0.06643433  0.54047265  0.95604067    -0.05500
N683        N  0.09121119  0.56336022  0.94805474    -0.64400
Mn684      Mn  0.00061952  0.50035896  0.92981166     1.10700
C685        C  0.08069317  0.57724833  0.91528425     0.98600
C686        C  0.08007292  0.92094182  0.91750014     0.98700
N687        N  0.04275625  0.96319330  0.57072998    -0.06600
N688        N  0.05092140  0.94058976  0.59712446    -0.62000
N689        N  0.06738626  0.54086611  0.54181941    -0.06000
N690        N  0.09269358  0.56342017  0.54856622    -0.58700
N691        N  0.04333131  0.54204147  0.56800824    -0.07300
N692        N  0.05202380  0.56561658  0.59309568    -0.61600
N693        N  0.06678206  0.96264590  0.54453192    -0.06300
N694        N  0.09159136  0.93967370  0.55262608    -0.58800
Mn695      Mn  0.00123661  0.50223790  0.57061553     1.20200
Mn696      Mn  0.06774596  0.50041608  0.49922730     1.10100
Cl697      Cl  0.00100987  0.50083059  0.49977500    -0.86700
C698        C  0.08135069  0.92579873  0.58545484     0.95600
C699        C  0.08274537  0.57909838  0.58034821     0.95400
N700        N  0.29210339  0.78891720  0.67883323    -0.06900
N701        N  0.29993146  0.81172483  0.65251981    -0.59000
N702        N  0.31702808  0.70974515  0.70658902    -0.06600
N703        N  0.34211669  0.68677175  0.69963499    -0.61100
N704        N  0.29291360  0.70912127  0.68034704    -0.06200
N705        N  0.30136561  0.68585570  0.65478735    -0.59000
N706        N  0.31621980  0.78945459  0.70505587    -0.05800
N707        N  0.34077035  0.81253039  0.69704458    -0.61500
C708        C  0.33037831  0.82645431  0.66419628     0.95300
C709        C  0.33181399  0.67170572  0.66758655     0.95100
N710        N  0.29216882  0.71087367  0.81967506    -0.07100
N711        N  0.29994978  0.68774533  0.84563204    -0.59600
N712        N  0.31632524  0.79046954  0.79319183    -0.05200
N713        N  0.34121122  0.81315678  0.80150992    -0.60800
N714        N  0.29186019  0.79051720  0.81895845    -0.07100
N715        N  0.29957363  0.81329974  0.84511525    -0.59900
N716        N  0.31649498  0.71082340  0.79380030    -0.04800
N717        N  0.34113447  0.68761493  0.80164255    -0.60900
Mn718      Mn  0.31727077  0.75021744  0.74966561     1.18400
C719        C  0.33047641  0.67316327  0.83403879     0.97400
C720        C  0.33044625  0.82728747  0.83402558     0.98000
N721        N  0.20884175  0.70864541  0.68132221    -0.07100
N722        N  0.20044074  0.68502931  0.65617735    -0.63400
N723        N  0.18443947  0.78885576  0.70533655    -0.05900
N724        N  0.15972733  0.81194670  0.69730700    -0.64100
N725        N  0.20845063  0.78826509  0.67912454    -0.06600
N726        N  0.20037364  0.81095243  0.65278232    -0.63700
N727        N  0.18472791  0.70961075  0.70745809    -0.05500
N728        N  0.15966300  0.68685977  0.70060522    -0.64400
Mn729      Mn  0.25054478  0.74865631  0.67884600     1.10700
C730        C  0.16981481  0.67130399  0.66883451     0.98600
C731        C  0.17001565  0.82584543  0.66450480     0.98700
N732        N  0.20896313  0.79064879  0.81891685    -0.06600
N733        N  0.20134509  0.81395457  0.84457423    -0.62000
N734        N  0.18431281  0.71074607  0.79474526    -0.06000
N735        N  0.15943628  0.68803417  0.80299153    -0.58700
N736        N  0.20868887  0.71090056  0.82069187    -0.07300
N737        N  0.20075563  0.68838418  0.84724209    -0.62600
N738        N  0.18461757  0.79060583  0.79298089    -0.06300
N739        N  0.16000757  0.81392121  0.80054312    -0.58800
Mn740      Mn  0.25045892  0.75067796  0.82042946     1.20200
Mn741      Mn  0.18379837  0.75001865  0.75008893     1.10100
Cl742      Cl  0.25052756  0.74989423  0.74971848    -0.86700
C743        C  0.17088979  0.82862221  0.83272742     0.95600
C744        C  0.16997993  0.67424943  0.83581357     0.95400
C745        C  0.15333727  0.64478973  0.60893553    -0.06600
C746        C  0.14740171  0.64690108  0.64730748    -0.00600
C747        C  0.11996976  0.62676342  0.66343002    -0.09200
C748        C  0.09944793  0.60554090  0.64019308    -0.06600
C749        C  0.10534598  0.60343125  0.60181003    -0.00600
C750        C  0.13280316  0.62357230  0.58568425    -0.09100
C751        C  0.14078729  0.62323536  0.54430812     0.61300
H752        H  0.17429989  0.66024320  0.59702866     0.12000
H753        H  0.07851491  0.59007468  0.65213171     0.12000
C754        C  0.11209273  0.62706942  0.70483597     0.61500
F755        F  0.16430373  0.64922530  0.53440475    -0.23700
F756        F  0.11025031  0.62872942  0.52409397    -0.21000
F757        F  0.15563266  0.59145380  0.53471039    -0.20700
F758        F  0.09764020  0.65897760  0.71462873    -0.20700
F759        F  0.14265108  0.62115085  0.72489889    -0.21000
F760        F  0.08828685  0.60135689  0.71473890    -0.23700
C761        C  0.12098274  0.62759849  0.91386318    -0.06600
C762        C  0.10233547  0.60229496  0.89379046    -0.00600
C763        C  0.10694629  0.60003673  0.85478476    -0.09200
C764        C  0.12975469  0.62383525  0.83732222    -0.06600
C765        C  0.14839082  0.64916878  0.85738091    -0.00600
C766        C  0.14387645  0.65133178  0.89641950    -0.09100
C767        C  0.16221022  0.67893058  0.91966670     0.61300
H768        H  0.11738243  0.62863117  0.94370669     0.12000
H769        H  0.13336497  0.62276941  0.80748286     0.12000
C770        C  0.08893581  0.57213957  0.83164348     0.61500
F771        F  0.15047450  0.67889411  0.95603801    -0.23700
F772        F  0.15573216  0.71182198  0.90501519    -0.21000
F773        F  0.19806554  0.67253933  0.92017583    -0.20700
F774        F  0.05299377  0.57801964  0.83115620    -0.20700
F775        F  0.09590262  0.53937705  0.84639522    -0.21000
F776        F  0.10060283  0.57224164  0.79525685    -0.23700
C777        C  0.13671384  0.89232841  0.59270576    -0.06600
C778        C  0.10305937  0.90007294  0.60675719    -0.00600
C779        C  0.09182252  0.88329948  0.63990704    -0.09200
C780        C  0.11474183  0.85942197  0.65731349    -0.06600
C781        C  0.14837739  0.85165536  0.64325003    -0.00600
C782        C  0.15966161  0.86849736  0.61016012    -0.09100
C783        C  0.19572502  0.86220073  0.59321209     0.61300
H784        H  0.14518410  0.90526529  0.56757706     0.12000
H785        H  0.10626772  0.84647250  0.68243310     0.12000
C786        C  0.05586040  0.88975468  0.65702368     0.61500
F787        F  0.20167894  0.88311315  0.56242955    -0.23700
F788        F  0.19867578  0.82776664  0.58193402    -0.21000
F789        F  0.22144362  0.86978486  0.61912385    -0.20700
F790        F  0.02998729  0.88208222  0.63131760    -0.20700
F791        F  0.05304850  0.92425503  0.66811041    -0.21000
F792        F  0.05002718  0.86902753  0.68797430    -0.23700
C793        C  0.39190316  0.59616909  0.64089335    -0.06600
C794        C  0.39807276  0.60376795  0.60336508    -0.00600
C795        C  0.38233328  0.63363116  0.58687392    -0.09200
C796        C  0.36024055  0.65479417  0.60870562    -0.06600
C797        C  0.35406998  0.64722046  0.64627753    -0.00600
C798        C  0.36994787  0.61739885  0.66278044    -0.09100
C799        C  0.36296839  0.60743438  0.70294458     0.61300
H800        H  0.40414264  0.57310945  0.65284822     0.12000
H801        H  0.34802222  0.67784311  0.59670760     0.12000
C802        C  0.38987121  0.64377973  0.54685976     0.61500
F803        F  0.37631565  0.57463831  0.71149252    -0.23700
F804        F  0.32707888  0.60691463  0.70948867    -0.21000
F805        F  0.37868191  0.63135987  0.72633798    -0.20700
F806        F  0.37440360  0.62005581  0.52304854    -0.20700
F807        F  0.42585921  0.64416945  0.54086610    -0.21000
F808        F  0.37679924  0.67667783  0.53833410    -0.23700
C809        C  0.37649799  0.87251339  0.83654033    -0.06600
C810        C  0.35217608  0.85200656  0.85609500    -0.00600
C811        C  0.35103653  0.85422712  0.89547390    -0.09200
C812        C  0.37432847  0.87718863  0.91352000    -0.06600
C813        C  0.39872598  0.89766981  0.89394317    -0.00600
C814        C  0.39984088  0.89537932  0.85455768    -0.09100
C815        C  0.42490523  0.91706803  0.83110448     0.61300
H816        H  0.37709879  0.87043066  0.80665181     0.12000
H817        H  0.37370325  0.87928169  0.94340736     0.12000
C818        C  0.32611077  0.83223594  0.91881357     0.61500
F819        F  0.41897813  0.91279429  0.79345911    -0.23700
F820        F  0.45924678  0.90695854  0.83832989    -0.21000
F821        F  0.42059339  0.95221112  0.83897449    -0.20700
F822        F  0.33086345  0.79714256  0.91091967    -0.20700
F823        F  0.29166176  0.84190307  0.91146262    -0.21000
F824        F  0.33183413  0.83656873  0.95647881    -0.23700
C825        C  0.38641036  0.64092632  0.84208561    -0.06600
C826        C  0.35252681  0.64826469  0.85586135    -0.00600
C827        C  0.34174008  0.63267188  0.88982225    -0.09200
C828        C  0.36545329  0.61046026  0.90836120    -0.06600
C829        C  0.39925304  0.60304909  0.89455385    -0.00600
C830        C  0.41021143  0.61884013  0.86077017    -0.09100
C831        C  0.44665854  0.61315138  0.84420468     0.61300
H832        H  0.39444526  0.65291645  0.81623574     0.12000
H833        H  0.35742188  0.59845628  0.93420018     0.12000
C834        C  0.30561034  0.63880533  0.90690469     0.61500
F835        F  0.45207355  0.63339240  0.81281352    -0.23700
F836        F  0.45075497  0.57854794  0.83395113    -0.21000
F837        F  0.47222225  0.62214044  0.86983834    -0.20700
F838        F  0.27961362  0.62957581  0.88187671    -0.20700
F839        F  0.30193770  0.67358077  0.91664585    -0.21000
F840        F  0.30055554  0.61909506  0.93875077    -0.23700
C841        C  0.13795023  0.89396182  0.90501976    -0.06600
C842        C  0.10211554  0.89643880  0.89548061    -0.00600
C843        C  0.08916477  0.87660795  0.86514027    -0.09200
C844        C  0.11290712  0.85542362  0.84541957    -0.06600
C845        C  0.14877833  0.85298631  0.85491198    -0.00600
C846        C  0.16169430  0.87277576  0.88532420    -0.09100
C847        C  0.20022775  0.87241733  0.89703999     0.61300
H848        H  0.14752742  0.90920117  0.92811266     0.12000
H849        H  0.10331014  0.84022048  0.82230606     0.12000
C850        C  0.05060619  0.87702839  0.85349656     0.61500
F851        F  0.20715885  0.89662032  0.92459558    -0.23700
F852        F  0.22133404  0.88050537  0.86698269    -0.21000
F853        F  0.20921973  0.83982885  0.91090433    -0.20700
F854        F  0.04181647  0.90947030  0.83908851    -0.20700
F855        F  0.02946784  0.86956158  0.88371600    -0.21000
F856        F  0.04348179  0.85242337  0.82641176    -0.23700
C857        C  0.37105213  0.88340991  0.58765581    -0.06600
C858        C  0.39893752  0.89928833  0.60696991    -0.00600
C859        C  0.40358717  0.89137453  0.64526467    -0.09200
C860        C  0.37999799  0.86807654  0.66236961    -0.06600
C861        C  0.35214285  0.85216277  0.64303525    -0.00600
C862        C  0.34749001  0.86008538  0.60474663    -0.09100
C863        C  0.31829446  0.84419506  0.58140408     0.61300
H864        H  0.36776956  0.88941635  0.55851604     0.12000
H865        H  0.38327673  0.86206217  0.69151082     0.12000
C866        C  0.43286753  0.90716467  0.66856498     0.61500
F867        F  0.31920304  0.85560243  0.54489794    -0.23700
F868        F  0.28597876  0.85367898  0.59573224    -0.21000
F869        F  0.32154161  0.80816484  0.58117367    -0.20700
F870        F  0.42982568  0.94321179  0.66872109    -0.20700
F871        F  0.46512274  0.89747490  0.65423672    -0.21000
F872        F  0.43190402  0.89583647  0.70509731    -0.23700
N873        N  0.95910213  0.46019487  0.43082487    -0.06900
N874        N  0.95096912  0.43744758  0.40477448    -0.59000
N875        N  0.93468456  0.04046383  0.45599086    -0.06600
N876        N  0.91011245  0.06375926  0.44820351    -0.61100
N877        N  0.95901748  0.04041746  0.43011971    -0.06200
N878        N  0.95130983  0.06364063  0.40423292    -0.59000
N879        N  0.93476686  0.46050078  0.45673104    -0.05800
N880        N  0.90958733  0.43806156  0.44862528    -0.61500
C881        C  0.91999811  0.42377898  0.41607464     0.95300
C882        C  0.92080157  0.07825369  0.41583603     0.95100
N883        N  0.95880645  0.04182750  0.06842972    -0.07100
N884        N  0.95048809  0.06537063  0.09372173    -0.59600
N885        N  0.93461196  0.46105125  0.04441268    -0.05200
N886        N  0.91015431  0.43772452  0.05183204    -0.60800
N887        N  0.95858241  0.46146704  0.07081696    -0.07100
N888        N  0.95078260  0.43825364  0.09675218    -0.59900
N889        N  0.93458568  0.04095377  0.04230583    -0.04800
N890        N  0.90954461  0.06401732  0.04911182    -0.60900
Mn891      Mn  0.93358911  0.50042982  0.00020473     1.18400
C892        C  0.91997776  0.07940754  0.08094206     0.97400
C893        C  0.92068509  0.42334350  0.08432568     0.98000
N894        N  0.54243536  0.04034328  0.42896758    -0.07100
N895        N  0.55037154  0.06279371  0.40235272    -0.63400
N896        N  0.56657684  0.45974535  0.45645939    -0.05900
N897        N  0.59102077  0.43620915  0.44908385    -0.64100
N898        N  0.54218356  0.45965920  0.43057343    -0.06600
N899        N  0.54963132  0.43608502  0.40510872    -0.63700
N900        N  0.56677281  0.04059188  0.45494655    -0.05500
N901        N  0.59163187  0.06329810  0.44665767    -0.64400
Mn902      Mn  0.50071793  0.00056388  0.42930009     1.10700
C903        C  0.58111905  0.07698428  0.41377890     0.98600
C904        C  0.58002380  0.42131167  0.41705704     0.98700
N905        N  0.54212236  0.46232527  0.07084094    -0.06600
N906        N  0.55014101  0.43948197  0.09702855    -0.62000
N907        N  0.56721701  0.04076476  0.04187237    -0.06000
N908        N  0.59253773  0.06332196  0.04854829    -0.58700
N909        N  0.54313859  0.04204925  0.06802477    -0.07300
N910        N  0.55186268  0.06571562  0.09303645    -0.61600
N911        N  0.56623477  0.46198954  0.04474224    -0.06300
N912        N  0.59099931  0.43897096  0.05271940    -0.58800
Mn913      Mn  0.50097210  0.00217510  0.07050975     1.20200
Mn914      Mn  0.56763552  0.00008616  0.99953448     1.10100
Cl915      Cl  0.50090160  0.00041597  0.99969766    -0.86700
C916        C  0.58064635  0.42486200  0.08538681     0.95600
C917        C  0.58262814  0.07914329  0.08026242     0.95400
N918        N  0.79269944  0.28994106  0.17904914    -0.06900
N919        N  0.80045483  0.31310504  0.15304018    -0.59000
N920        N  0.81780233  0.21069268  0.20641202    -0.06600
N921        N  0.84290728  0.18771933  0.19946806    -0.61100
N922        N  0.79369249  0.21000153  0.18016705    -0.06200
N923        N  0.80213052  0.18665506  0.15469277    -0.59000
N924        N  0.81670638  0.29040886  0.20542053    -0.05800
N925        N  0.84115446  0.31372498  0.19788321    -0.61500
C926        C  0.83057344  0.32804586  0.16536376     0.95300
C927        C  0.83262625  0.17254471  0.16744696     0.95100
N928        N  0.79223516  0.21150915  0.31942887    -0.07100
N929        N  0.79960281  0.18806953  0.34517489    -0.59600
N930        N  0.81650161  0.29121429  0.29346207    -0.05200
N931        N  0.84117965  0.31409878  0.30189000    -0.60800
N932        N  0.79193692  0.29110211  0.31912101    -0.07100
N933        N  0.79940852  0.31391564  0.34533835    -0.59900
N934        N  0.81667674  0.21150150  0.29369220    -0.04800
N935        N  0.84102630  0.18799000  0.30142205    -0.60900
Mn936      Mn  0.81772981  0.25103604  0.24974935     1.18400
C937        C  0.83003190  0.17333764  0.33360269     0.97400
C938        C  0.83020349  0.32816142  0.33437561     0.98000
N939        N  0.70942396  0.20917315  0.18064153    -0.07100
N940        N  0.70084470  0.18562034  0.15543202    -0.63400
N941        N  0.68500904  0.28922761  0.20517920    -0.05900
N942        N  0.66018024  0.31217611  0.19720708    -0.64100
N943        N  0.70911359  0.28891783  0.17907362    -0.06600
N944        N  0.70101626  0.31172043  0.15287706    -0.63700
N945        N  0.68543859  0.20998129  0.20691157    -0.05500
N946        N  0.66040058  0.18717743  0.20016393    -0.64400
Mn947      Mn  0.75122562  0.24941909  0.17860087     1.10700
C948        C  0.67028121  0.17175686  0.16824877     0.98600
C949        C  0.67047944  0.32627907  0.16452807     0.98700
N950        N  0.70905062  0.29085735  0.31862663    -0.06600
N951        N  0.70122263  0.31394454  0.34441300    -0.62000
N952        N  0.68487708  0.21091148  0.29394301    -0.06000
N953        N  0.66011901  0.18799473  0.30187932    -0.58700
N954        N  0.70908609  0.21114832  0.32003868    -0.07300
N955        N  0.70116446  0.18845146  0.34640034    -0.62600
N956        N  0.68475138  0.29074510  0.29265352    -0.06300
N957        N  0.65994290  0.31382989  0.30031266    -0.58800
Mn958      Mn  0.75062548  0.25113104  0.32016987     1.20200
Mn959      Mn  0.68432688  0.25028378  0.24961358     1.10100
Cl960      Cl  0.75100511  0.25048110  0.24947311    -0.86700
C961        C  0.67068873  0.32844360  0.33259745     0.95600
C962        C  0.67055991  0.17415076  0.33469425     0.95400
C963        C  0.65385306  0.14449352  0.10859315    -0.06600
C964        C  0.64759815  0.14732621  0.14685519    -0.00600
C965        C  0.61954846  0.12790436  0.16293642    -0.09200
C966        C  0.59895208  0.10660196  0.13979886    -0.06600
C967        C  0.60528067  0.10367370  0.10156504    -0.00600
C968        C  0.63324968  0.12316905  0.08546676    -0.09100
C969        C  0.64177700  0.12197386  0.04423387     0.61300
H970        H  0.67519136  0.15941634  0.09667160     0.12000
H971        H  0.57764016  0.09164167  0.15171565     0.12000
C972        C  0.61111861  0.12890919  0.20422208     0.61500
F973        F  0.66603553  0.14723450  0.03420166    -0.23700
F974        F  0.61163795  0.12784278  0.02347592    -0.21000
F975        F  0.65600865  0.08971058  0.03544255    -0.20700
F976        F  0.59787752  0.16144373  0.21356502    -0.20700
F977        F  0.64115364  0.12186638  0.22475121    -0.21000
F978        F  0.58607890  0.10433741  0.21402608    -0.23700
C979        C  0.62159445  0.12714848  0.41246849    -0.06600
C980        C  0.60267895  0.10212820  0.39226494    -0.00600
C981        C  0.60697961  0.10028558  0.35318017    -0.09200
C982        C  0.62992001  0.12405649  0.33585510    -0.06600
C983        C  0.64888425  0.14903133  0.35608648    -0.00600
C984        C  0.64454690  0.15089234  0.39515425    -0.09100
C985        C  0.66307313  0.17823787  0.41857612     0.61300
H986        H  0.61814431  0.12796309  0.44233618     0.12000
H987        H  0.63333843  0.12328178  0.30597890     0.12000
C988        C  0.58842582  0.07295987  0.32975594     0.61500
F989        F  0.65179682  0.17766989  0.45509731    -0.23700
F990        F  0.65628296  0.21129169  0.40449548    -0.21000
F991        F  0.69895407  0.17198367  0.41854395    -0.20700
F992        F  0.55258298  0.07943399  0.32954809    -0.20700
F993        F  0.59491206  0.03991623  0.34400719    -0.21000
F994        F  0.59994476  0.07331251  0.29330836    -0.23700
C995        C  0.63459982  0.38912940  0.09056998    -0.06600
C996        C  0.60250867  0.39931764  0.10666987    -0.00600
C997        C  0.59320321  0.38541244  0.14191612    -0.09200
C998        C  0.61648289  0.36198865  0.15938455    -0.06600
C999        C  0.64857345  0.35179935  0.14327137    -0.00600
C1000       C  0.65784363  0.36565835  0.10800277    -0.09100
C1001       C  0.69211782  0.35661477  0.08865731     0.61300
H1002       H  0.64158907  0.39979923  0.06378902     0.12000
H1003       H  0.60950409  0.35132150  0.18617225     0.12000
C1004       C  0.55881726  0.39427139  0.16114111     0.61500
F1005       F  0.69611579  0.37434340  0.05536946    -0.23700
F1006       F  0.69334146  0.32120915  0.08099328    -0.21000
F1007       F  0.71985381  0.36582063  0.11132278    -0.20700
F1008       F  0.53122645  0.38499410  0.13831732    -0.20700
F1009       F  0.55738608  0.42965105  0.16889440    -0.21000
F1010       F  0.55476100  0.37644219  0.19436359    -0.23700
C1011       C  0.89480136  0.09845195  0.14066799    -0.06600
C1012       C  0.89781159  0.10399656  0.10229456    -0.00600
C1013       C  0.87936634  0.13211048  0.08536956    -0.09200
C1014       C  0.85773747  0.15335627  0.10763464    -0.06600
C1015       C  0.85478153  0.14788302  0.14606007    -0.00600
C1016       C  0.87351738  0.11993183  0.16301983    -0.09100
C1017       C  0.87050058  0.11213971  0.20427622     0.61300
H1018       H  0.90912788  0.07681679  0.15303793     0.12000
H1019       H  0.84340735  0.17496228  0.09521252     0.12000
C1020       C  0.88358065  0.14061657  0.04438166     0.61500
F1021       F  0.88601000  0.08046825  0.21357091    -0.23700
F1022       F  0.83541505  0.11057781  0.21441293    -0.21000
F1023       F  0.88712382  0.13801192  0.22440663    -0.20700
F1024       F  0.86728029  0.11533960  0.02313123    -0.20700
F1025       F  0.91896544  0.14195210  0.03538523    -0.21000
F1026       F  0.86874389  0.17266305  0.03535475    -0.23700
C1027       C  0.87618542  0.37348295  0.33686063    -0.06600
C1028       C  0.85156480  0.35328499  0.35639411    -0.00600
C1029       C  0.84977953  0.35627121  0.39570510    -0.09200
C1030       C  0.87293806  0.37940180  0.41367574    -0.06600
C1031       C  0.89785269  0.39927798  0.39414295    -0.00600
C1032       C  0.89940247  0.39650267  0.35482908    -0.09100
C1033       C  0.92475028  0.41789803  0.33139730     0.61300
H1034       H  0.87717477  0.37099275  0.30702687     0.12000
H1035       H  0.87195776  0.38193173  0.44351047     0.12000
C1036       C  0.82456556  0.33470454  0.41914381     0.61500
F1037       F  0.91936647  0.41303977  0.29375127    -0.23700
F1038       F  0.95903117  0.40801396  0.33926664    -0.21000
F1039       F  0.92021397  0.45314317  0.33863488    -0.20700
F1040       F  0.83010931  0.29946741  0.41267301    -0.20700
F1041       F  0.79016375  0.34354436  0.41052975    -0.21000
F1042       F  0.82920926  0.34038291  0.45677464    -0.23700
C1043       C  0.88495809  0.13957628  0.34064789    -0.06600
C1044       C  0.85175001  0.14811664  0.35529004    -0.00600
C1045       C  0.84149320  0.13355072  0.38993952    -0.09200
C1046       C  0.86538491  0.11151430  0.40856445    -0.06600
C1047       C  0.89872064  0.10313354  0.39400144    -0.00600
C1048       C  0.90883905  0.11758273  0.35924360    -0.09100
C1049       C  0.94444045  0.11049159  0.34136329     0.61300
H1050       H  0.89242478  0.15057958  0.31412819     0.12000
H1051       H  0.85789601  0.10047662  0.43506551     0.12000
C1052       C  0.80579869  0.14068186  0.40765890     0.61500
F1053       F  0.94890418  0.12917073  0.30872603    -0.23700
F1054       F  0.94747391  0.07539481  0.33273891    -0.21000
F1055       F  0.97117095  0.12018304  0.36530986    -0.20700
F1056       F  0.77911357  0.13157020  0.38338321    -0.20700
F1057       F  0.80297160  0.17568627  0.41679686    -0.21000
F1058       F  0.80097166  0.12156674  0.43994267    -0.23700
C1059       C  0.63792543  0.39423609  0.40449131    -0.06600
C1060       C  0.60201642  0.39659628  0.39513099    -0.00600
C1061       C  0.58895424  0.37633694  0.36515028    -0.09200
C1062       C  0.61263785  0.35498773  0.34552831    -0.06600
C1063       C  0.64855639  0.35275882  0.35479461    -0.00600
C1064       C  0.66158651  0.37281224  0.38494075    -0.09100
C1065       C  0.70014408  0.37233628  0.39659277     0.61300
H1066       H  0.64762010  0.40970703  0.42735378     0.12000
H1067       H  0.60297213  0.33947518  0.32268100     0.12000
C1068       C  0.55032277  0.37638886  0.35385161     0.61500
F1069       F  0.70732515  0.39695283  0.42364796    -0.23700
F1070       F  0.72131722  0.37971486  0.36637676    -0.21000
F1071       F  0.70883706  0.33988668  0.41105309    -0.20700
F1072       F  0.54109844  0.40872017  0.33949028    -0.20700
F1073       F  0.52953771  0.36874999  0.38428961    -0.21000
F1074       F  0.54321796  0.35170200  0.32683674    -0.23700
C1075       C  0.86192701  0.40179891  0.10201335    -0.06600
C1076       C  0.89860576  0.39854796  0.10572893    -0.00600
C1077       C  0.91265459  0.37184374  0.12875798    -0.09200
C1078       C  0.88934044  0.34946294  0.14745029    -0.06600
C1079       C  0.85264959  0.35275619  0.14380674    -0.00600
C1080       C  0.83860528  0.37945080  0.12073505    -0.09100
C1081       C  0.79933635  0.38452737  0.11571633     0.61300
H1082       H  0.85152941  0.42226523  0.08427654     0.12000
H1083       H  0.89975486  0.32899739  0.16517687     0.12000
C1084       C  0.95192927  0.36688160  0.13383038     0.61500
F1085       F  0.79142112  0.41493769  0.09640632    -0.23700
F1086       F  0.78304711  0.38649201  0.14997651    -0.21000
F1087       F  0.78610262  0.35666533  0.09582705    -0.20700
F1088       F  0.96501076  0.39470351  0.15390304    -0.20700
F1089       F  0.96830145  0.36514975  0.09959475    -0.21000
F1090       F  0.95991544  0.33640893  0.15298546    -0.23700
N1091       N  0.95934161  0.46039170  0.93081733    -0.06900
N1092       N  0.95190766  0.43755826  0.90461262    -0.59000
N1093       N  0.93499469  0.03928868  0.95530458    -0.06600
N1094       N  0.91051526  0.06269937  0.94771183    -0.61100
N1095       N  0.95918041  0.03909491  0.92929435    -0.06200
N1096       N  0.95139836  0.06230406  0.90337748    -0.59000
N1097       N  0.93476781  0.46027752  0.95645605    -0.05800
N1098       N  0.91011726  0.43736887  0.94801728    -0.61500
C1099       C  0.92112296  0.42327514  0.91554631     0.95300
C1100       C  0.92106559  0.07712695  0.91529284     0.95100
N1101       N  0.95806734  0.04213200  0.56947086    -0.07100
N1102       N  0.94953722  0.06532765  0.59507269    -0.59600
N1103       N  0.93513651  0.46171010  0.54478433    -0.05200
N1104       N  0.91040965  0.43885375  0.55295659    -0.60800
N1105       N  0.95933665  0.46215498  0.57092457    -0.07100
N1106       N  0.95138362  0.43946687  0.59733032    -0.59900
N1107       N  0.93396483  0.04148459  0.54321693    -0.04800
N1108       N  0.90880521  0.06438259  0.55020190    -0.60900
Mn1109     Mn  0.93428898  0.50083554  0.50006271     1.18400
C1110       C  0.91905670  0.07941558  0.58229037     0.97400
C1111       C  0.92076430  0.42492905  0.58582039     0.98000
N1112       N  0.54285397  0.03895381  0.92881474    -0.07100
N1113       N  0.55079398  0.06168420  0.90247856    -0.63400
N1114       N  0.56648126  0.46069807  0.95721481    -0.05900
N1115       N  0.59134481  0.43773787  0.94938566    -0.64100
N1116       N  0.54216814  0.46065133  0.93126773    -0.06600
N1117       N  0.55004107  0.43771696  0.90535748    -0.63700
N1118       N  0.56716905  0.03908773  0.95483093    -0.05500
N1119       N  0.59196664  0.06196165  0.94687384    -0.64400
Mn1120     Mn  0.50088261  0.99921726  0.92897096     1.10700
C1121       C  0.58148743  0.07588143  0.91412155     0.98600
C1122       C  0.58066162  0.42328613  0.91699157     0.98700
N1123       N  0.54296238  0.46243587  0.57014659    -0.06600
N1124       N  0.55099162  0.43984782  0.59654811    -0.62000
N1125       N  0.56629293  0.04192138  0.54226105    -0.06000
N1126       N  0.59132094  0.06471863  0.54910786    -0.58700
N1127       N  0.54219578  0.04283428  0.56841979    -0.07300
N1128       N  0.55058259  0.06645531  0.59357102    -0.61600
N1129       N  0.56690372  0.46163693  0.54388246    -0.06300
N1130       N  0.59152784  0.43847722  0.55191999    -0.58800
Mn1131     Mn  0.50058042  0.00270238  0.57093843     1.20200
Mn1132     Mn  0.56734399  0.00142527  0.49968896     1.10100
Cl1133     Cl  0.50061732  0.00140423  0.50004782    -0.86700
C1134       C  0.58122883  0.42478962  0.58480303     0.95600
C1135       C  0.58118091  0.08024248  0.58090323     0.95400
N1136       N  0.79194675  0.28897271  0.67929512    -0.06900
N1137       N  0.79988460  0.31174195  0.65297849    -0.59000
N1138       N  0.81617692  0.20975691  0.70708103    -0.06600
N1139       N  0.84124385  0.18685505  0.69992974    -0.61100
N1140       N  0.79197726  0.20923848  0.68092341    -0.06200
N1141       N  0.80033623  0.18609540  0.65522273    -0.59000
N1142       N  0.81616331  0.28933137  0.70541443    -0.05800
N1143       N  0.84088282  0.31221954  0.69732861    -0.61500
C1144       C  0.83050239  0.32624537  0.66452753     0.95300
C1145       C  0.83081746  0.17193103  0.66787628     0.95100
N1146       N  0.79199812  0.21117919  0.82040884    -0.07100
N1147       N  0.79981700  0.18803434  0.84638348    -0.59600
N1148       N  0.81664047  0.29052328  0.79332235    -0.05200
N1149       N  0.84179792  0.31302287  0.80132988    -0.60800
N1150       N  0.79230156  0.29089750  0.81921091    -0.07100
N1151       N  0.80040469  0.31376997  0.84513884    -0.59900
N1152       N  0.81608812  0.21087930  0.79429200    -0.04800
N1153       N  0.84056873  0.18746495  0.80192058    -0.60900
Mn1154     Mn  0.81697725  0.25018465  0.75003936     1.18400
C1155       C  0.83008449  0.17313432  0.83442949     0.97400
C1156       C  0.83136891  0.32744525  0.83381033     0.98000
N1157       N  0.70779051  0.20930286  0.68199537    -0.07100
N1158       N  0.69904938  0.18579369  0.65685574    -0.63400
N1159       N  0.68440076  0.28973100  0.70628650    -0.05900
N1160       N  0.65984303  0.31297261  0.69827860    -0.64100
N1161       N  0.70833577  0.28890787  0.68001721    -0.06600
N1162       N  0.70037086  0.31154986  0.65364110    -0.63700
N1163       N  0.68374628  0.21047694  0.70819111    -0.05500
N1164       N  0.65839831  0.18797769  0.70139840    -0.64400
Mn1165     Mn  0.74997242  0.24900751  0.67949617     1.10700
C1166       C  0.66830325  0.17234232  0.66957281     0.98600
C1167       C  0.67017703  0.32667704  0.66540855     0.98700
N1168       N  0.70926104  0.29144042  0.81955660    -0.06600
N1169       N  0.70189506  0.31496101  0.84508193    -0.62000
N1170       N  0.68409604  0.21151638  0.79528540    -0.06000
N1171       N  0.65948896  0.18837543  0.80305287    -0.58700
N1172       N  0.70849500  0.21153791  0.82121492    -0.07300
N1173       N  0.70082896  0.18845055  0.84729367    -0.62600
N1174       N  0.68481803  0.29140977  0.79373564    -0.06300
N1175       N  0.66041246  0.31493050  0.80124640    -0.58800
Mn1176     Mn  0.75052169  0.25123744  0.82105133     1.20200
Mn1177     Mn  0.68352869  0.25086316  0.75087484     1.10100
Cl1178     Cl  0.75026119  0.25031353  0.75032831    -0.86700
C1179       C  0.67145001  0.32972665  0.83331973     0.95600
C1180       C  0.67019784  0.17416223  0.83558872     0.95400
C1181       C  0.65167519  0.14586765  0.60970137    -0.06600
C1182       C  0.64567237  0.14805267  0.64806192    -0.00600
C1183       C  0.61811060  0.12800485  0.66412044    -0.09200
C1184       C  0.59757972  0.10681182  0.64082866    -0.06600
C1185       C  0.60361256  0.10462803  0.60247216    -0.00600
C1186       C  0.63117268  0.12465730  0.58642304    -0.09100
C1187       C  0.63922764  0.12424186  0.54505521     0.61300
H1188       H  0.67269203  0.16125699  0.59781435     0.12000
H1189       H  0.57655341  0.09141750  0.65269732     0.12000
C1190       C  0.61007280  0.12837347  0.70548547     0.61500
F1191       F  0.66325154  0.14977930  0.53522676    -0.23700
F1192       F  0.60879412  0.13033434  0.52484024    -0.21000
F1193       F  0.65351530  0.09223048  0.53537445    -0.20700
F1194       F  0.59561380  0.16031254  0.71514040    -0.20700
F1195       F  0.64053352  0.12247038  0.72570457    -0.21000
F1196       F  0.58621237  0.10267451  0.71532422    -0.23700
C1197       C  0.62145566  0.12656070  0.91309192    -0.06600
C1198       C  0.60306620  0.10118264  0.89283531    -0.00600
C1199       C  0.60767073  0.09926439  0.85381197    -0.09200
C1200       C  0.63044799  0.12325464  0.83654830    -0.06600
C1201       C  0.64877242  0.14868834  0.85681064    -0.00600
C1202       C  0.64393481  0.15077641  0.89578751    -0.09100
C1203       C  0.66113292  0.17912764  0.91898723     0.61300
H1204       H  0.61777377  0.12745230  0.94292897     0.12000
H1205       H  0.63415319  0.12236786  0.80671336     0.12000
C1206       C  0.58952291  0.07161968  0.83045928     0.61500
F1207       F  0.64901360  0.17900522  0.95520546    -0.23700
F1208       F  0.65368754  0.21166628  0.90392739    -0.21000
F1209       F  0.69717657  0.17397407  0.91997325    -0.20700
F1210       F  0.55358287  0.07754437  0.83027305    -0.20700
F1211       F  0.59652636  0.03870363  0.84480188    -0.21000
F1212       F  0.60097260  0.07209314  0.79400520    -0.23700
C1213       C  0.63646759  0.39137275  0.59223846    -0.06600
C1214       C  0.60293667  0.39939893  0.60636926    -0.00600
C1215       C  0.59188727  0.38342386  0.64001217    -0.09200
C1216       C  0.61497714  0.36014809  0.65797768    -0.06600
C1217       C  0.64850401  0.35210990  0.64384645    -0.00600
C1218       C  0.65956507  0.36810644  0.61021293    -0.09100
C1219       C  0.69558140  0.36158699  0.59327800     0.61300
H1220       H  0.64473685  0.40365722  0.56666943     0.12000
H1221       H  0.60670187  0.34786284  0.68354105     0.12000
C1222       C  0.55589273  0.38999462  0.65697933     0.61500
F1223       F  0.70145788  0.38201202  0.56211417    -0.23700
F1224       F  0.69857156  0.32697533  0.58262482    -0.21000
F1225       F  0.72129285  0.36966613  0.61901043    -0.20700
F1226       F  0.53013681  0.38185516  0.63131410    -0.20700
F1227       F  0.55292880  0.42463541  0.66753578    -0.21000
F1228       F  0.55005749  0.36965917  0.68821449    -0.23700
C1229       C  0.89046280  0.09622882  0.64111515    -0.06600
C1230       C  0.89680393  0.10390431  0.60359803    -0.00600
C1231       C  0.88121125  0.13390969  0.58717500    -0.09200
C1232       C  0.85930398  0.15518911  0.60906416    -0.06600
C1233       C  0.85295149  0.14747025  0.64653134    -0.00600
C1234       C  0.86846621  0.11747088  0.66296480    -0.09100
C1235       C  0.86078554  0.10728882  0.70294166     0.61300
H1236       H  0.90249292  0.07305690  0.65305715     0.12000
H1237       H  0.84725117  0.17837169  0.59716470     0.12000
C1238       C  0.88844936  0.14399772  0.54709990     0.61500
F1239       F  0.87385481  0.07440231  0.71150561    -0.23700
F1240       F  0.82477279  0.10687804  0.70877456    -0.21000
F1241       F  0.87614415  0.13100056  0.72684617    -0.20700
F1242       F  0.87257013  0.12034432  0.52351832    -0.20700
F1243       F  0.92436759  0.14416904  0.54070066    -0.21000
F1244       F  0.87549161  0.17697735  0.53868668    -0.23700
C1245       C  0.87946027  0.37081521  0.83640299    -0.06600
C1246       C  0.85351846  0.35203482  0.85570496    -0.00600
C1247       C  0.85090843  0.35598552  0.89484569    -0.09200
C1248       C  0.87415305  0.37896054  0.91283093    -0.06600
C1249       C  0.89978833  0.39808172  0.89352325    -0.00600
C1250       C  0.90263534  0.39393839  0.85439276    -0.09100
C1251       C  0.92901004  0.41425723  0.83110138     0.61300
H1252       H  0.88124473  0.36745017  0.80670968     0.12000
H1253       H  0.87236989  0.38226193  0.94252617     0.12000
C1254       C  0.82437545  0.33590961  0.91814057     0.61500
F1255       F  0.92559050  0.40729712  0.79357633    -0.23700
F1256       F  0.96295179  0.40522718  0.84136206    -0.21000
F1257       F  0.92382342  0.44978275  0.83593817    -0.20700
F1258       F  0.82853048  0.30035212  0.91253885    -0.20700
F1259       F  0.79056467  0.34607442  0.90857638    -0.21000
F1260       F  0.82853175  0.34206062  0.95573647    -0.23700
C1261       C  0.88680923  0.14259084  0.84330054    -0.06600
C1262       C  0.85218594  0.14805227  0.85594299    -0.00600
C1263       C  0.84056902  0.13011244  0.88822050    -0.09200
C1264       C  0.86440764  0.10783674  0.90658611    -0.06600
C1265       C  0.89899641  0.10229524  0.89387130    -0.00600
C1266       C  0.91054405  0.12007458  0.86148096    -0.09100
C1267       C  0.94750866  0.11589616  0.84579968     0.61300
H1268       H  0.89543942  0.15631562  0.81866800     0.12000
H1269       H  0.85579790  0.09415709  0.93125568     0.12000
C1270       C  0.80329870  0.13350800  0.90331934     0.61500
F1271       F  0.95347056  0.13800538  0.81597372    -0.23700
F1272       F  0.95236556  0.08201074  0.83345630    -0.21000
F1273       F  0.97220306  0.12367122  0.87278818    -0.20700
F1274       F  0.77922252  0.12527634  0.87587013    -0.20700
F1275       F  0.79746970  0.16723062  0.91568316    -0.21000
F1276       F  0.79735738  0.11118415  0.93297847    -0.23700
C1277       C  0.63765672  0.39355765  0.90688394    -0.06600
C1278       C  0.60281207  0.39890547  0.89481440    -0.00600
C1279       C  0.59101437  0.38181067  0.86211022    -0.09200
C1280       C  0.61477290  0.36016270  0.84300419    -0.06600
C1281       C  0.64956487  0.35462955  0.85518918    -0.00600
C1282       C  0.66141449  0.37188398  0.88778364    -0.09100
C1283       C  0.69878696  0.36817670  0.90267477     0.61300
H1284       H  0.64642685  0.40675271  0.93168662     0.12000
H1285       H  0.60598475  0.34702592  0.81817725     0.12000
C1286       C  0.55367208  0.38563911  0.84712652     0.61500
F1287       F  0.70490028  0.38973010  0.93280901    -0.23700
F1288       F  0.72265998  0.37714051  0.87532856    -0.21000
F1289       F  0.70472138  0.33416353  0.91430329    -0.20700
F1290       F  0.54786249  0.41970895  0.83558419    -0.20700
F1291       F  0.52969691  0.37665474  0.87436782    -0.21000
F1292       F  0.54755741  0.36417292  0.81692875    -0.23700
C1293       C  0.87055703  0.38387944  0.58807252    -0.06600
C1294       C  0.89889237  0.39930494  0.60709707    -0.00600
C1295       C  0.90404573  0.39085663  0.64519820    -0.09200
C1296       C  0.88064038  0.36738515  0.66236711    -0.06600
C1297       C  0.85233180  0.35193738  0.64332340    -0.00600
C1298       C  0.84713864  0.36043254  0.60524764    -0.09100
C1299       C  0.81744189  0.34504052  0.58225601     0.61300
H1300       H  0.86679672  0.39033249  0.55910209     0.12000
H1301       H  0.88440108  0.36090941  0.69133364     0.12000
C1302       C  0.93370031  0.40629140  0.66821388     0.61500
F1303       F  0.81783007  0.35681808  0.54588042    -0.23700
F1304       F  0.78548843  0.35466342  0.59731608    -0.21000
F1305       F  0.82034682  0.30898648  0.58155348    -0.20700
F1306       F  0.93090770  0.44235605  0.66867997    -0.20700
F1307       F  0.96567923  0.39648266  0.65333952    -0.21000
F1308       F  0.93312346  0.39473440  0.70466851    -0.23700
N1309       N  0.95924156  0.96079053  0.43070996    -0.06900
N1310       N  0.95145386  0.93813421  0.40444353    -0.59000
N1311       N  0.93516483  0.54015268  0.45582013    -0.06600
N1312       N  0.91071120  0.56361259  0.44823055    -0.61100
N1313       N  0.95929738  0.53991465  0.42974500    -0.06200
N1314       N  0.95153329  0.56316246  0.40385988    -0.59000
N1315       N  0.93482274  0.96076713  0.45654265    -0.05800
N1316       N  0.90991629  0.93809294  0.44822680    -0.61500
C1317       C  0.92062443  0.92413263  0.41562793     0.95300
C1318       C  0.92123559  0.57803417  0.41577569     0.95100
N1319       N  0.95772096  0.54133926  0.06986744    -0.07100
N1320       N  0.94923052  0.56452602  0.09548650    -0.59600
N1321       N  0.93509795  0.96131013  0.04439983    -0.05200
N1322       N  0.91054687  0.93825424  0.05248120    -0.60800
N1323       N  0.95917496  0.96203623  0.07065278    -0.07100
N1324       N  0.95131513  0.93934736  0.09705136    -0.59900
N1325       N  0.93359632  0.54070299  0.04362862    -0.04800
N1326       N  0.90843521  0.56356934  0.05071605    -0.60900
Mn1327     Mn  0.93414039  0.00016971  0.99959250     1.18400
C1328       C  0.91869644  0.57860284  0.08281675     0.97400
C1329       C  0.92090620  0.92451344  0.08541436     0.98000
N1330       N  0.54277336  0.53961186  0.42884178    -0.07100
N1331       N  0.55045407  0.56265633  0.40272180    -0.63400
N1332       N  0.56664472  0.96074595  0.45686224    -0.05900
N1333       N  0.59132826  0.93746596  0.44940595    -0.64100
N1334       N  0.54230957  0.96058509  0.43089746    -0.06600
N1335       N  0.55000776  0.93721823  0.40531111    -0.63700
N1336       N  0.56715245  0.53967246  0.45478241    -0.05500
N1337       N  0.59176342  0.56279474  0.44698722    -0.64400
Mn1338     Mn  0.50081039  0.49987619  0.42905633     1.10700
C1339       C  0.58108371  0.57695909  0.41441614     0.98600
C1340       C  0.58046402  0.92262877  0.41730004     0.98700
N1341       N  0.54276728  0.96231212  0.07061529    -0.06600
N1342       N  0.55078786  0.93988630  0.09723290    -0.62000
N1343       N  0.56599324  0.54125275  0.04306680    -0.06000
N1344       N  0.59110775  0.56397003  0.04983763    -0.58700
N1345       N  0.54202410  0.54207423  0.06935150    -0.07300
N1346       N  0.55069694  0.56555359  0.09460104    -0.61600
N1347       N  0.56689428  0.96159925  0.04451683    -0.06300
N1348       N  0.59176334  0.93881616  0.05292366    -0.58800
Mn1349     Mn  0.50011613  0.50189809  0.07134312     1.20200
Mn1350     Mn  0.56698001  0.50102987  0.00032217     1.10100
Cl1351     Cl  0.50029678  0.50092140  0.00047519    -0.86700
C1352       C  0.58142874  0.92534980  0.08587468     0.95600
C1353       C  0.58129804  0.57935283  0.08179404     0.95400
N1354       N  0.79223275  0.78912904  0.17945699    -0.06900
N1355       N  0.80023443  0.81167490  0.15296569    -0.59000
N1356       N  0.81674597  0.71021234  0.20784994    -0.06600
N1357       N  0.84179967  0.68715896  0.20104187    -0.61100
N1358       N  0.79254901  0.70936772  0.18170077    -0.06200
N1359       N  0.80089581  0.68586204  0.15637887    -0.59000
N1360       N  0.81629930  0.78983320  0.20572261    -0.05800
N1361       N  0.84097340  0.81273372  0.19756539    -0.61500
C1362       C  0.83071129  0.82640238  0.16456826     0.95300
C1363       C  0.83139112  0.67181392  0.16917798     0.95100
N1364       N  0.79205904  0.71214442  0.32085747    -0.07100
N1365       N  0.79976384  0.68885838  0.34671759    -0.59600
N1366       N  0.81652891  0.79164847  0.29374447    -0.05200
N1367       N  0.84154434  0.81433846  0.30171432    -0.60800
N1368       N  0.79216985  0.79192896  0.31964269    -0.07100
N1369       N  0.80013425  0.81484810  0.34562233    -0.59900
N1370       N  0.81623548  0.71189116  0.29483859    -0.04800
N1371       N  0.84063150  0.68837849  0.30239093    -0.60900
Mn1372     Mn  0.81717263  0.75100691  0.25055203     1.18400
C1373       C  0.83006098  0.67395434  0.33480921     0.97400
C1374       C  0.83100223  0.82867341  0.33418472     0.98000
N1375       N  0.70825168  0.70913997  0.18218654    -0.07100
N1376       N  0.69956690  0.68546050  0.15717681    -0.63400
N1377       N  0.68443313  0.78957220  0.20565106    -0.05900
N1378       N  0.65958069  0.81238552  0.19727922    -0.64100
N1379       N  0.70857439  0.78888665  0.17956636    -0.06600
N1380       N  0.70057061  0.81135562  0.15298498    -0.63700
N1381       N  0.68417305  0.71038797  0.20834241    -0.05500
N1382       N  0.65888339  0.68779109  0.20165761    -0.64400
Mn1383     Mn  0.75039497  0.74903447  0.17966487     1.10700
C1384       C  0.66881972  0.67198675  0.16993681     0.98600
C1385       C  0.66993317  0.82589451  0.16435652     0.98700
N1386       N  0.70903164  0.79224049  0.31918997    -0.06600
N1387       N  0.70144845  0.81588838  0.34451424    -0.62000
N1388       N  0.68418935  0.71218330  0.29542265    -0.06000
N1389       N  0.65945316  0.68923836  0.30335374    -0.58700
N1390       N  0.70846492  0.71239939  0.32147533    -0.07300
N1391       N  0.70056385  0.68964163  0.34780386    -0.62600
N1392       N  0.68475520  0.79202680  0.29316246    -0.06300
N1393       N  0.66024557  0.81556234  0.30029597    -0.58800
Mn1394     Mn  0.75044003  0.75214269  0.32125595     1.20200
Mn1395     Mn  0.68370656  0.75112001  0.25065360     1.10100
Cl1396     Cl  0.75044087  0.75084338  0.25049256    -0.86700
C1397       C  0.67113949  0.83059230  0.33227493     0.95600
C1398       C  0.66992474  0.67534798  0.33612511     0.95400
C1399       C  0.65270321  0.64439606  0.11039865    -0.06600
C1400       C  0.64623044  0.64741198  0.14860216    -0.00600
C1401       C  0.61820905  0.62793812  0.16462600    -0.09200
C1402       C  0.59768653  0.60657957  0.14146066    -0.06600
C1403       C  0.60404196  0.60370551  0.10322327    -0.00600
C1404       C  0.63218926  0.62305131  0.08721848    -0.09100
C1405       C  0.64081210  0.62192968  0.04597719     0.61300
H1406       H  0.67406016  0.65932833  0.09853654     0.12000
H1407       H  0.57630111  0.59168804  0.15332906     0.12000
C1408       C  0.60950503  0.62921690  0.20581067     0.61500
F1409       F  0.66608313  0.64630145  0.03626234    -0.23700
F1410       F  0.61092626  0.62916056  0.02528089    -0.21000
F1411       F  0.65386152  0.58929030  0.03674873    -0.20700
F1412       F  0.59528611  0.66151760  0.21446568    -0.20700
F1413       F  0.63954334  0.62333365  0.22672368    -0.21000
F1414       F  0.58515786  0.60401454  0.21577238    -0.23700
C1415       C  0.62120159  0.62755866  0.41360810    -0.06600
C1416       C  0.60252154  0.60246327  0.39323004    -0.00600
C1417       C  0.60702562  0.60074514  0.35418419    -0.09200
C1418       C  0.62965658  0.62489052  0.33698234    -0.06600
C1419       C  0.64837615  0.64995692  0.35735526    -0.00600
C1420       C  0.64402595  0.65155396  0.39643099    -0.09100
C1421       C  0.66245386  0.67888194  0.41995732     0.61300
H1422       H  0.61771118  0.62819931  0.44347861     0.12000
H1423       H  0.63312614  0.62424481  0.30711028     0.12000
C1424       C  0.58919964  0.57295192  0.33074930     0.61500
F1425       F  0.65124696  0.67809420  0.45648968    -0.23700
F1426       F  0.65548475  0.71196497  0.40604437    -0.21000
F1427       F  0.69836825  0.67280730  0.41981304    -0.20700
F1428       F  0.55322235  0.57862004  0.33027121    -0.20700
F1429       F  0.59634287  0.54010794  0.34520125    -0.21000
F1430       F  0.60093099  0.57341785  0.29439126    -0.23700
C1431       C  0.62786430  0.88035158  0.08699187    -0.06600
C1432       C  0.60290190  0.89969764  0.10714667    -0.00600
C1433       C  0.60068305  0.89507973  0.14619887    -0.09200
C1434       C  0.62353021  0.87094914  0.16327847    -0.06600
C1435       C  0.64848201  0.85158912  0.14311571    -0.00600
C1436       C  0.65070565  0.85622017  0.10406689    -0.09100
C1437       C  0.67616476  0.83558189  0.07995682     0.61300
H1438       H  0.62925797  0.88417014  0.05728734     0.12000
H1439       H  0.62213272  0.86712378  0.19298363     0.12000
C1440       C  0.57519679  0.91570230  0.17029446     0.61500
F1441       F  0.67176821  0.84286851  0.04255380    -0.23700
F1442       F  0.67074945  0.80011966  0.08489986    -0.21000
F1443       F  0.71043807  0.84396114  0.08921755    -0.20700
F1444       F  0.54093894  0.90723278  0.16106773    -0.20700
F1445       F  0.58052147  0.95117117  0.16529132    -0.21000
F1446       F  0.57963651  0.90848221  0.20770613    -0.23700
C1447       C  0.89304987  0.59739293  0.14253869    -0.06600
C1448       C  0.89655800  0.60322923  0.10422574    -0.00600
C1449       C  0.87840101  0.63156665  0.08732166    -0.09200
C1450       C  0.85709425  0.65308421  0.10960052    -0.06600
C1451       C  0.85354083  0.64720091  0.14786204    -0.00600
C1452       C  0.87142479  0.61871139  0.16473789    -0.09100
C1453       C  0.86666318  0.60997333  0.20560111     0.61300
H1454       H  0.90696578  0.57549418  0.15490833     0.12000
H1455       H  0.84318483  0.67500841  0.09727223     0.12000
C1456       C  0.88207865  0.63969051  0.04620043     0.61500
F1457       F  0.88088079  0.57762527  0.21451051    -0.23700
F1458       F  0.83117475  0.60915686  0.21422070    -0.21000
F1459       F  0.88316755  0.63483943  0.22722243    -0.20700
F1460       F  0.86535327  0.61423947  0.02556182    -0.20700
F1461       F  0.91731830  0.64083064  0.03659024    -0.21000
F1462       F  0.86715802  0.67166334  0.03702219    -0.23700
C1463       C  0.87419603  0.87680089  0.33621472    -0.06600
C1464       C  0.85294103  0.85331823  0.35603615    -0.00600
C1465       C  0.85491942  0.85261653  0.39543299    -0.09200
C1466       C  0.87791491  0.87585776  0.41338602    -0.06600
C1467       C  0.89901602  0.89942616  0.39360686    -0.00600
C1468       C  0.89710614  0.90016817  0.35421261    -0.09100
C1469       C  0.91817729  0.92594576  0.33101924     0.61300
H1470       H  0.87254088  0.87680639  0.30627118     0.12000
H1471       H  0.87958471  0.87585216  0.44332923     0.12000
C1472       C  0.83357792  0.82724285  0.41879670     0.61500
F1473       F  0.90910306  0.92461690  0.29381436    -0.23700
F1474       F  0.95369453  0.91826229  0.33384379    -0.21000
F1475       F  0.91199577  0.95970759  0.34318007    -0.20700
F1476       F  0.83892710  0.79337727  0.40656204    -0.20700
F1477       F  0.79822529  0.83573524  0.41632759    -0.21000
F1478       F  0.84304855  0.82832565  0.45590908    -0.23700
C1479       C  0.88603142  0.64170733  0.34237562    -0.06600
C1480       C  0.85212187  0.64874331  0.35624988    -0.00600
C1481       C  0.84137958  0.63258562  0.38989803    -0.09200
C1482       C  0.86519723  0.61015224  0.40809304    -0.06600
C1483       C  0.89914394  0.60319134  0.39427977    -0.00600
C1484       C  0.90999501  0.61958464  0.36078401    -0.09100
C1485       C  0.94657867  0.61466719  0.34433673     0.61300
H1486       H  0.89402895  0.65409187  0.31672518     0.12000
H1487       H  0.85717348  0.59771068  0.43370121     0.12000
C1488       C  0.80523029  0.63850035  0.40700981     0.61500
F1489       F  0.95188511  0.63553832  0.31338041    -0.23700
F1490       F  0.95119248  0.58031462  0.33343579    -0.21000
F1491       F  0.97185634  0.62353924  0.37032071    -0.20700
F1492       F  0.77922271  0.63011812  0.38164763    -0.20700
F1493       F  0.80177181  0.67304984  0.41770260    -0.21000
F1494       F  0.79996588  0.61800161  0.43824329    -0.23700
C1495       C  0.63906242  0.89839865  0.40218915    -0.06600
C1496       C  0.60262538  0.89836056  0.39514101    -0.00600
C1497       C  0.58900841  0.87615775  0.36708960    -0.09200
C1498       C  0.61264261  0.85514136  0.34702284    -0.06600
C1499       C  0.64904675  0.85509368  0.35416705    -0.00600
C1500       C  0.66268205  0.87732079  0.38215907    -0.09100
C1501       C  0.70185016  0.87957804  0.39076914     0.61300
H1502       H  0.64914565  0.91546860  0.42354202     0.12000
H1503       H  0.60257795  0.83804458  0.32568608     0.12000
C1504       C  0.54982999  0.87364654  0.35861289     0.61500
F1505       F  0.70939346  0.90662767  0.41493910    -0.23700
F1506       F  0.72056152  0.88545526  0.35844428    -0.21000
F1507       F  0.71321243  0.84882754  0.40723584    -0.20700
F1508       F  0.53801859  0.90454547  0.34284167    -0.20700
F1509       F  0.53138362  0.86695093  0.39092387    -0.21000
F1510       F  0.54244716  0.84698734  0.33389514    -0.23700
C1511       C  0.87099418  0.88318615  0.08768414    -0.06600
C1512       C  0.89918078  0.89888098  0.10671485    -0.00600
C1513       C  0.90430241  0.89076859  0.14488788    -0.09200
C1514       C  0.88081677  0.86750074  0.16220958    -0.06600
C1515       C  0.85257662  0.85187171  0.14320220    -0.00600
C1516       C  0.84748560  0.85994847  0.10501703    -0.09100
C1517       C  0.81785684  0.84428118  0.08206754     0.61300
H1518       H  0.86738951  0.88931306  0.05861144     0.12000
H1519       H  0.88443041  0.86136726  0.19128096     0.12000
C1520       C  0.93388724  0.90649404  0.16785973     0.61500
F1521       F  0.81831087  0.85584964  0.04561361    -0.23700
F1522       F  0.78571024  0.85379556  0.09696540    -0.21000
F1523       F  0.82103504  0.80823491  0.08156334    -0.20700
F1524       F  0.93056152  0.94252598  0.16845862    -0.20700
F1525       F  0.96606702  0.89714478  0.15292139    -0.21000
F1526       F  0.93349840  0.89484250  0.20428608    -0.23700
N1527       N  0.95927878  0.95931639  0.93056095    -0.06900
N1528       N  0.95149669  0.93630396  0.90463029    -0.59000
N1529       N  0.93456739  0.53995591  0.95630821    -0.06600
N1530       N  0.91011110  0.56333810  0.94851622    -0.61100
N1531       N  0.95899131  0.53995845  0.93055700    -0.06200
N1532       N  0.95150983  0.56328318  0.90473274    -0.59000
N1533       N  0.93484282  0.95956656  0.95635904    -0.05800
N1534       N  0.90991356  0.93681864  0.94828462    -0.61500
C1535       C  0.92060647  0.92240374  0.91587921     0.95300
C1536       C  0.92104162  0.57794261  0.91629262     0.95100
N1537       N  0.95912291  0.54192910  0.56914262    -0.07100
N1538       N  0.95075015  0.56516008  0.59475105    -0.59600
N1539       N  0.93493228  0.96178832  0.54476590    -0.05200
N1540       N  0.91034669  0.93877490  0.55285628    -0.60800
N1541       N  0.95904783  0.96236210  0.57099563    -0.07100
N1542       N  0.95118078  0.93963972  0.59738570    -0.59900
N1543       N  0.93493411  0.54132683  0.54297915    -0.04800
N1544       N  0.90986640  0.56426853  0.55002323    -0.60900
Mn1545     Mn  0.93385141  0.00102145  0.50011163     1.18400
C1546       C  0.92027539  0.57929781  0.58203199     0.97400
C1547       C  0.92071158  0.92492467  0.58575122     0.98000
N1548       N  0.54213493  0.54030553  0.92999033    -0.07100
N1549       N  0.55001285  0.56300879  0.90362798    -0.63400
N1550       N  0.56650639  0.95926985  0.95694055    -0.05900
N1551       N  0.59099105  0.93577403  0.94959808    -0.64100
N1552       N  0.54220824  0.95919178  0.93095227    -0.06600
N1553       N  0.54973911  0.93569777  0.90547991    -0.63700
N1554       N  0.56641239  0.54047969  0.95602317    -0.05500
N1555       N  0.59118304  0.56337226  0.94803209    -0.64400
Mn1556     Mn  0.50061185  0.50034442  0.92979950     1.10700
C1557       C  0.58066074  0.57725274  0.91525926     0.98600
C1558       C  0.58007911  0.92094531  0.91749909     0.98700
N1559       N  0.54279554  0.96320371  0.57071100    -0.06600
N1560       N  0.55095661  0.94059565  0.59710182    -0.62000
N1561       N  0.56736829  0.54085216  0.54183332    -0.06000
N1562       N  0.59267306  0.56341128  0.54857231    -0.58700
N1563       N  0.54331316  0.54203293  0.56802178    -0.07300
N1564       N  0.55200260  0.56561582  0.59310140    -0.61600
N1565       N  0.56682642  0.96266488  0.54451782    -0.06300
N1566       N  0.59163656  0.93969316  0.55261303    -0.58800
Mn1567     Mn  0.50121549  0.50223496  0.57063459     1.20200
Mn1568     Mn  0.56771966  0.50039814  0.49924392     1.10100
Cl1569     Cl  0.50098375  0.50083108  0.49979414    -0.86700
C1570       C  0.58138959  0.92581049  0.58543689     0.95600
C1571       C  0.58272243  0.57909696  0.58034956     0.95400
N1572       N  0.79210160  0.78888212  0.67881030    -0.06900
N1573       N  0.79991975  0.81169754  0.65250179    -0.59000
N1574       N  0.81702454  0.70971222  0.70657295    -0.06600
N1575       N  0.84211513  0.68674061  0.69962066    -0.61100
N1576       N  0.79291017  0.70908607  0.68033091    -0.06200
N1577       N  0.80136560  0.68582042  0.65477195    -0.59000
N1578       N  0.81621824  0.78942193  0.70503235    -0.05800
N1579       N  0.84075991  0.81250799  0.69702569    -0.61500
C1580       C  0.83036098  0.82643504  0.66418110     0.95300
C1581       C  0.83181466  0.67167226  0.66757321     0.95100
N1582       N  0.79215997  0.71084405  0.81965013    -0.07100
N1583       N  0.79993954  0.68771826  0.84560964    -0.59600
N1584       N  0.81633126  0.79044029  0.79316861    -0.05200
N1585       N  0.84121763  0.81312824  0.80148468    -0.60800
N1586       N  0.79186673  0.79048907  0.81893565    -0.07100
N1587       N  0.79957984  0.81327401  0.84508971    -0.59900
N1588       N  0.81649003  0.71079442  0.79377952    -0.04800
N1589       N  0.84113114  0.68758972  0.80162834    -0.60900
Mn1590     Mn  0.81727049  0.75018699  0.74964447     1.18400
C1591       C  0.83047096  0.67314046  0.83402510     0.97400
C1592       C  0.83045238  0.82726104  0.83399938     0.98000
N1593       N  0.70883490  0.70862589  0.68131166    -0.07100
N1594       N  0.70042957  0.68500887  0.65617014    -0.63400
N1595       N  0.68444823  0.78884665  0.70531820    -0.05900
N1596       N  0.65974222  0.81194435  0.69729053    -0.64100
N1597       N  0.70845444  0.78824378  0.67910150    -0.06600
N1598       N  0.70037992  0.81093007  0.65275730    -0.63700
N1599       N  0.68471899  0.70960282  0.70744494    -0.05500
N1600       N  0.65964832  0.68685776  0.70059423    -0.64400
Mn1601     Mn  0.75054286  0.74862696  0.67882706     1.10700
C1602       C  0.66979901  0.67129473  0.66882732     0.98600
C1603       C  0.67002951  0.82583536  0.66448469     0.98700
N1604       N  0.70897343  0.79063829  0.81890041    -0.06600
N1605       N  0.70136057  0.81394245  0.84456142    -0.62000
N1606       N  0.68430049  0.71074284  0.79472384    -0.06000
N1607       N  0.65941651  0.68803770  0.80296531    -0.58700
N1608       N  0.70867645  0.71088736  0.82067038    -0.07300
N1609       N  0.70073483  0.68837009  0.84721712    -0.62600
N1610       N  0.68462763  0.79060343  0.79296502    -0.06300
N1611       N  0.66002248  0.81392242  0.80053297    -0.58800
Mn1612     Mn  0.75045824  0.75065636  0.82040840     1.20200
Mn1613     Mn  0.68379822  0.75001448  0.75007161     1.10100
Cl1614     Cl  0.75052694  0.74987268  0.74969896    -0.86700
C1615       C  0.67090611  0.82861677  0.83272120     0.95600
C1616       C  0.66995453  0.67424588  0.83578529     0.95400
C1617       C  0.65330621  0.64479734  0.60892700    -0.06600
C1618       C  0.64738042  0.64689896  0.64730101    -0.00600
C1619       C  0.61995438  0.62675722  0.66342732    -0.09200
C1620       C  0.59942929  0.60553739  0.64019183    -0.06600
C1621       C  0.60532076  0.60343329  0.60180722    -0.00600
C1622       C  0.63277088  0.62358037  0.58567742    -0.09100
C1623       C  0.64074743  0.62324852  0.54429977     0.61300
H1624       H  0.67426451  0.66025691  0.59701728     0.12000
H1625       H  0.57850155  0.59006718  0.65213295     0.12000
C1626       C  0.61208991  0.62705374  0.70483598     0.61500
F1627       F  0.66425893  0.64924244  0.53439481    -0.23700
F1628       F  0.61020593  0.62873999  0.52409251    -0.21000
F1629       F  0.65559539  0.59147001  0.53469566    -0.20700
F1630       F  0.59763713  0.65895823  0.71464159    -0.20700
F1631       F  0.64265509  0.62113440  0.72488705    -0.21000
F1632       F  0.58828983  0.60133647  0.71474046    -0.23700
C1633       C  0.62094559  0.62760480  0.91383240    -0.06600
C1634       C  0.60229603  0.60230218  0.89376113    -0.00600
C1635       C  0.60689959  0.60004739  0.85475404    -0.09200
C1636       C  0.62970988  0.62384413  0.83729002    -0.06600
C1637       C  0.64835439  0.64917191  0.85734949    -0.00600
C1638       C  0.64383915  0.65133678  0.89638738    -0.09100
C1639       C  0.66217032  0.67893847  0.91963255     0.61300
H1640       H  0.61734817  0.62863722  0.94367512     0.12000
H1641       H  0.63331654  0.62277995  0.80745106     0.12000
C1642       C  0.58888030  0.57215521  0.83161308     0.61500
F1643       F  0.65043091  0.67890639  0.95600245    -0.23700
F1644       F  0.65569266  0.71182773  0.90497520    -0.21000
F1645       F  0.69802563  0.67254801  0.92014663    -0.20700
F1646       F  0.55293939  0.57804366  0.83112993    -0.20700
F1647       F  0.59584037  0.53939025  0.84636214    -0.21000
F1648       F  0.60054451  0.57225572  0.79522554    -0.23700
C1649       C  0.63675373  0.89234584  0.59270293    -0.06600
C1650       C  0.60309215  0.90008037  0.60674010    -0.00600
C1651       C  0.59184460  0.88329699  0.63988109    -0.09200
C1652       C  0.61475441  0.85940720  0.65728209    -0.06600
C1653       C  0.64839708  0.85165110  0.64323235    -0.00600
C1654       C  0.65969867  0.86851649  0.61016323    -0.09100
C1655       C  0.69578383  0.86225687  0.59325422     0.61300
H1656       H  0.64523458  0.90529422  0.56758392     0.12000
H1657       H  0.60626874  0.84644206  0.68238914     0.12000
C1658       C  0.55588244  0.88975642  0.65699550     0.61500
F1659       F  0.70176271  0.88320675  0.56250597    -0.23700
F1660       F  0.69876735  0.82783675  0.58193796    -0.21000
F1661       F  0.72146564  0.86982746  0.61921114    -0.20700
F1662       F  0.53001106  0.88208712  0.63128690    -0.20700
F1663       F  0.55307415  0.92425701  0.66808266    -0.21000
F1664       F  0.55004447  0.86903072  0.68794636    -0.23700
C1665       C  0.89189839  0.59613574  0.64086507    -0.06600
C1666       C  0.89808914  0.60375527  0.60334568    -0.00600
C1667       C  0.88237751  0.63363872  0.58686898    -0.09200
C1668       C  0.86027931  0.65479528  0.60870154    -0.06600
C1669       C  0.85407949  0.64719623  0.64626246    -0.00600
C1670       C  0.86994130  0.61736085  0.66275517    -0.09100
C1671       C  0.86293991  0.60737565  0.70290933     0.61300
H1672       H  0.90412186  0.57306268  0.65280937     0.12000
H1673       H  0.84807740  0.67785822  0.59671222     0.12000
C1674       C  0.88994886  0.64381119  0.54686941     0.61500
F1675       F  0.87630360  0.57458531  0.71145423    -0.23700
F1676       F  0.82704594  0.60683018  0.70942237    -0.21000
F1677       F  0.87861972  0.63130128  0.72632760    -0.20700
F1678       F  0.87447287  0.62011865  0.52302895    -0.20700
F1679       F  0.92594080  0.64417166  0.54089848    -0.21000
F1680       F  0.87691349  0.67672838  0.53836518    -0.23700
C1681       C  0.87650418  0.87248882  0.83651946    -0.06600
C1682       C  0.85218138  0.85197941  0.85607047    -0.00600
C1683       C  0.85103659  0.85419888  0.89544947    -0.09200
C1684       C  0.87432727  0.87715761  0.91349998    -0.06600
C1685       C  0.89872475  0.89764111  0.89392733    -0.00600
C1686       C  0.89984146  0.89535737  0.85454158    -0.09100
C1687       C  0.92489873  0.91706001  0.83109405     0.61300
H1688       H  0.87710803  0.87040843  0.80663056     0.12000
H1689       H  0.87369988  0.87924810  0.94338659     0.12000
C1690       C  0.82610478  0.83221127  0.91878564     0.61500
F1691       F  0.91897413  0.91279245  0.79344765    -0.23700
F1692       F  0.95924388  0.90696178  0.83831738    -0.21000
F1693       F  0.92057377  0.95219995  0.83897313    -0.20700
F1694       F  0.83085205  0.79711730  0.91089150    -0.20700
F1695       F  0.79165812  0.84188526  0.91143150    -0.21000
F1696       F  0.83182540  0.83654171  0.95645157    -0.23700
C1697       C  0.88636261  0.64081861  0.84201056    -0.06600
C1698       C  0.85252694  0.64825402  0.85585823    -0.00600
C1699       C  0.84180138  0.63277822  0.88990169    -0.09200
C1700       C  0.86552586  0.61058353  0.90844735    -0.06600
C1701       C  0.89927577  0.60307201  0.89456599    -0.00600
C1702       C  0.91017432  0.61874731  0.86069942    -0.09100
C1703       C  0.94656481  0.61294226  0.84404042     0.61300
H1704       H  0.89434980  0.65271614  0.81609668     0.12000
H1705       H  0.85754289  0.59867276  0.93435040     0.12000
C1706       C  0.80572760  0.63902273  0.90707077     0.61500
F1707       F  0.95192620  0.63306994  0.81255704    -0.23700
F1708       F  0.95057200  0.57829770  0.83390385    -0.21000
F1709       F  0.97221711  0.62197400  0.86955837    -0.20700
F1710       F  0.77964901  0.62973657  0.88216166    -0.20700
F1711       F  0.80212960  0.67383844  0.91668093    -0.21000
F1712       F  0.80073352  0.61943498  0.93901256    -0.23700
C1713       C  0.63792611  0.89385744  0.90510538    -0.06600
C1714       C  0.60212070  0.89644097  0.89547149    -0.00600
C1715       C  0.58920651  0.87671700  0.86503247    -0.09200
C1716       C  0.61295408  0.85552864  0.84532203    -0.06600
C1717       C  0.64879590  0.85298476  0.85490993    -0.00600
C1718       C  0.66167618  0.87267104  0.88541660    -0.09100
C1719       C  0.70017891  0.87220519  0.89724474     0.61300
H1720       H  0.64747862  0.90901453  0.92827241     0.12000
H1721       H  0.60338272  0.84040733  0.82213673     0.12000
C1722       C  0.55068155  0.87725474  0.85326560     0.61500
F1723       F  0.70708210  0.89630333  0.92491184    -0.23700
F1724       F  0.72137738  0.88035745  0.86727948    -0.21000
F1725       F  0.70907837  0.83955644  0.91101412    -0.20700
F1726       F  0.54199431  0.90976515  0.83896411    -0.20700
F1727       F  0.52944265  0.86971448  0.88338559    -0.21000
F1728       F  0.54358618  0.85276586  0.82605359    -0.23700
C1729       C  0.87100956  0.88342577  0.58765848    -0.06600
C1730       C  0.89889378  0.89930206  0.60697597    -0.00600
C1731       C  0.90354203  0.89138617  0.64527040    -0.09200
C1732       C  0.87996018  0.86807742  0.66236848    -0.06600
C1733       C  0.85211104  0.85215986  0.64302874    -0.00600
C1734       C  0.84744948  0.86009714  0.60474472    -0.09100
C1735       C  0.81824532  0.84422169  0.58140250     0.61300
H1736       H  0.86772653  0.88943691  0.55852037     0.12000
H1737       H  0.88324026  0.86205718  0.69150632     0.12000
C1738       C  0.93281170  0.90718576  0.66857891     0.61500
F1739       F  0.81913087  0.85566387  0.54490776    -0.23700
F1740       F  0.78593577  0.85368577  0.59575877    -0.21000
F1741       F  0.82149926  0.80819255  0.58113355    -0.20700
F1742       F  0.92976085  0.94323222  0.66872927    -0.20700
F1743       F  0.96507447  0.89750185  0.65426407    -0.21000
F1744       F  0.93183827  0.89586233  0.70511269    -0.23700
loop_ 
_geom_bond_atom_site_label_1 
_geom_bond_atom_site_label_2 
_geom_bond_distance 
_geom_bond_site_symmetry_2 
_ccdc_geom_bond_type 
N1            N2   1.319       .  A
N1            N7   1.315       .  A
N1        Mn1338   2.199       .  S
N2            C9   1.352       .  A
N3            N5   1.314       .  A
N3            N4   1.317       .  A
N3         Mn673   2.188       .  S
N4           C10   1.353       .  A
N5            N6   1.318       .  A
N5         Mn902   2.193       .  S
N6           C10   1.352       .  A
N7            N8   1.320       .  A
N7         Mn237   2.198       .  S
N8            C9   1.354       .  A
C9          C159   1.489       .  S
C10         C175   1.488       .  S
N11          N17   1.315       .  A
N11          N12   1.321       .  A
N11        Mn913   2.202       .  S
N12          C20   1.354       .  A
N13          N14   1.317       .  A
N13          N15   1.316       .  A
N13         Mn19   2.189       .  S
N14          C21   1.351       .  A
N15          N16   1.322       .  A
N15       Mn1349   2.213       .  S
N16          C21   1.355       .  A
N17          N18   1.318       .  A
N17        Mn455   2.194   1_554  S
N18          C20   1.350       .  A
Mn19        N657   2.185   1_554  S
Mn19        N225   2.204   1_554  S
Mn19        N453   2.199       .  S
Mn19      Cl1351   2.534       .  S
C20         C140   1.478       .  S
C21         C204   1.483       .  S
N22          N23   1.321       .  A
N22          N28   1.314       .  A
N22         Mn30   2.200       .  S
N23          C31   1.353       .  A
N24          N26   1.313       .  A
N24          N25   1.318       .  A
N24        Mn696   2.193       .  S
N25          C32   1.354       .  A
N26          N27   1.319       .  A
N26        Mn466   2.195       .  S
N27          C32   1.352       .  A
N28          N29   1.319       .  A
N28        Mn260   2.197       .  S
N29          C31   1.353       .  A
Mn30       N1309   2.194   1_445  S
Mn30        N877   2.193   1_455  S
Mn30        N462   2.194   1_545  S
Mn30       Cl261   2.549       .  S
C31         C108   1.483       .  S
C32         C188   1.488       .  S
N33          N34   1.318       .  A
N33          N39   1.314       .  A
N33        Mn477   2.195       .  S
N34          C44   1.352       .  A
N35          N36   1.316       .  A
N35          N37   1.315       .  A
N35         Mn42   2.182   1_554  S
N36          C45   1.348       .  A
N37          N38   1.322       .  A
N37         Mn41   2.217       .  S
N38          C45   1.359       .  A
N39          N40   1.316       .  A
N39        Mn478   2.186       .  S
N40          C44   1.353       .  A
Mn41        N883   2.202   1_455  S
Mn41       N1323   2.212   1_445  S
Mn41        N469   2.196   1_545  S
Mn41        Cl43   2.553   1_554  S
Mn42        N678   2.193   1_545  S
Mn42        N246   2.192       .  S
Mn42        N475   2.186   1_546  S
Mn42        Cl43   2.534       .  S
Cl43      Mn1327   2.535   1_455  S
Cl43       Mn248   2.549   1_545  S
C44         C124   1.489       .  S
C45          C95   1.489       .  S
N46          N47   1.322       .  A
N46          N52   1.316       .  A
N46         Mn75   2.214       .  S
N47          C54   1.355       .  A
N48          N50   1.315       .  A
N48          N49   1.319       .  A
N48         Mn64   2.198       .  S
N49          C55   1.351       .  A
N50          N51   1.321       .  A
N50         Mn75   2.204       .  S
N51          C55   1.355       .  A
N52          N53   1.318       .  A
N52         Mn64   2.192       .  S
N53          C54   1.352       .  A
C54         C207   1.484       .  S
C55         C143   1.480       .  S
N56          N62   1.313       .  A
N56          N57   1.317       .  A
N56         Mn86   2.185       .  S
N57          C65   1.351       .  A
N58          N59   1.320       .  A
N58          N60   1.315       .  A
N58         Mn64   2.204       .  S
N59          C66   1.355       .  A
N60          N61   1.319       .  A
N60         Mn86   2.195       .  S
N61          C66   1.351       .  A
N62          N63   1.316       .  A
N62         Mn64   2.186       .  S
N63          C65   1.354       .  A
Mn64        Cl88   2.534       .  S
C65         C172   1.486       .  S
C66         C156   1.489       .  S
N67          N68   1.322       .  A
N67          N73   1.315       .  A
N67         Mn75   2.216       .  S
N68          C76   1.359       .  A
N69          N71   1.314       .  A
N69          N70   1.316       .  A
N69         Mn87   2.184       .  S
N70          C77   1.353       .  A
N71          N72   1.318       .  A
N71         Mn75   2.196       .  S
N72          C77   1.352       .  A
N73          N74   1.315       .  A
N73         Mn87   2.181       .  S
N74          C76   1.347       .  A
Mn75        Cl88   2.554       .  S
C76          C92   1.489       .  S
C77         C127   1.489       .  S
N78          N79   1.317       .  A
N78          N84   1.313       .  A
N78         Mn86   2.187       .  S
N79          C89   1.351       .  A
N80          N81   1.319       .  A
N80          N82   1.314       .  A
N80         Mn87   2.192       .  S
N81          C90   1.352       .  A
N82          N83   1.321       .  A
N82         Mn86   2.201       .  S
N83          C90   1.354       .  A
N84          N85   1.319       .  A
N84         Mn87   2.194       .  S
N85          C89   1.355       .  A
Mn86        Cl88   2.548       .  S
Mn87        Cl88   2.532       .  S
C89         C191   1.487       .  S
C90         C111   1.483       .  S
C91          C92   1.404       .  A
C91          C96   1.406       .  A
C91          H98   1.082       .  S
C92          C93   1.424       .  A
C93          C94   1.406       .  A
C93         C100   1.523       .  S
C94          C95   1.404       .  A
C94          H99   1.082       .  S
C95          C96   1.423       .  A
C96          C97   1.522       .  S
C97         F101   1.385       .  S
C97         F102   1.383       .  S
C97         F103   1.383       .  S
C100        F104   1.383       .  S
C100        F105   1.383       .  S
C100        F106   1.385       .  S
C107        C108   1.403       .  A
C107        C112   1.406       .  A
C107        H114   1.085       .  S
C108        C109   1.420       .  A
C109        C110   1.407       .  A
C109        C116   1.520       .  S
C110        C111   1.403       .  A
C110        H115   1.085       .  S
C111        C112   1.420       .  A
C112        C113   1.520       .  S
C113        F117   1.385       .  S
C113        F118   1.384       .  S
C113        F119   1.383       .  S
C116        F120   1.383       .  S
C116        F121   1.384       .  S
C116        F122   1.385       .  S
C123        C124   1.405       .  A
C123        C128   1.403       .  A
C123        H130   1.080       .  S
C124        C125   1.421       .  A
C125        C126   1.403       .  A
C125        C132   1.517       .  S
C126        C127   1.405       .  A
C126        H131   1.081       .  S
C127        C128   1.421       .  A
C128        C129   1.517       .  S
C129        F133   1.385       .  S
C129        F134   1.383       .  S
C129        F135   1.379       .  S
C132        F136   1.379       .  S
C132        F137   1.383       .  S
C132        F138   1.385       .  S
C139        C140   1.403       .  A
C139        C144   1.406       .  A
C139        H146   1.083       .  S
C140        C141   1.417       .  A
C141        C142   1.407       .  A
C141        C148   1.520       .  S
C142        C143   1.404       .  A
C142        H147   1.083       .  S
C143        C144   1.418       .  A
C144        C145   1.520       .  S
C145        F149   1.385       .  S
C145        F150   1.384       .  S
C145        F151   1.382       .  S
C148        F152   1.382       .  S
C148        F153   1.384       .  S
C148        F154   1.384       .  S
C155        C156   1.404       .  A
C155        C160   1.407       .  A
C155        H162   1.080       .  S
C156        C157   1.423       .  A
C157        C158   1.408       .  A
C157        C164   1.522       .  S
C158        C159   1.405       .  A
C158        H163   1.080       .  S
C159        C160   1.422       .  A
C160        C161   1.521       .  S
C161        F165   1.385       .  S
C161        F166   1.383       .  S
C161        F167   1.384       .  S
C164        F168   1.384       .  S
C164        F169   1.383       .  S
C164        F170   1.385       .  S
C171        C172   1.406       .  A
C171        C176   1.403       .  A
C171        H178   1.082       .  S
C172        C173   1.421       .  A
C173        C174   1.404       .  A
C173        C180   1.523       .  S
C174        C175   1.408       .  A
C174        H179   1.082       .  S
C175        C176   1.421       .  A
C176        C177   1.522       .  S
C177        F181   1.385       .  S
C177        F182   1.383       .  S
C177        F183   1.383       .  S
C180        F184   1.384       .  S
C180        F185   1.383       .  S
C180        F186   1.385       .  S
C187        C188   1.407       .  A
C187        C192   1.405       .  A
C187        H194   1.081       .  S
C188        C189   1.421       .  A
C189        C190   1.406       .  A
C189        C196   1.522       .  S
C190        C191   1.406       .  A
C190        H195   1.081       .  S
C191        C192   1.421       .  A
C192        C193   1.522       .  S
C193        F197   1.385       .  S
C193        F198   1.384       .  S
C193        F199   1.383       .  S
C196        F200   1.382       .  S
C196        F201   1.384       .  S
C196        F202   1.385       .  S
C203        C204   1.404       .  A
C203        C208   1.405       .  A
C203        H210   1.082       .  S
C204        C205   1.416       .  A
C205        C206   1.405       .  A
C205        C212   1.513       .  S
C206        C207   1.404       .  A
C206        H211   1.082       .  S
C207        C208   1.416       .  A
C208        C209   1.513       .  S
C209        F213   1.385       .  S
C209        F214   1.384       .  S
C209        F215   1.381       .  S
C212        F216   1.382       .  S
C212        F217   1.384       .  S
C212        F218   1.385       .  S
N219        N220   1.319       .  A
N219        N225   1.314       .  A
N219      Mn1556   2.194       .  S
N220        C227   1.351       .  A
N221        N223   1.313       .  A
N221        N222   1.316       .  A
N221       Mn455   2.184       .  S
N222        C228   1.352       .  A
N223        N224   1.319       .  A
N223      Mn1120   2.194   1_545  S
N224        C228   1.353       .  A
N225        N226   1.320       .  A
N226        C227   1.356       .  A
C227        C377   1.491       .  S
C228        C393   1.487       .  S
N229        N235   1.315       .  A
N229        N230   1.322       .  A
N229      Mn1131   2.204       .  S
N230        C238   1.354       .  A
N231        N232   1.318       .  A
N231        N233   1.315       .  A
N231       Mn237   2.196       .  S
N232        C239   1.354       .  A
N233        N234   1.322       .  A
N233      Mn1567   2.213       .  S
N234        C239   1.356       .  A
N235        N236   1.319       .  A
N235       Mn673   2.196       .  S
N236        C238   1.350       .  A
Mn237       N439   2.189       .  S
Mn237       N671   2.192       .  S
Mn237     Cl1569   2.534       .  S
C238        C358   1.477       .  S
C239        C422   1.497       .  S
N240        N241   1.321       .  A
N240        N246   1.315       .  A
N240       Mn248   2.206   1_545  S
N241        C249   1.354       .  A
N242        N244   1.313       .  A
N242        N243   1.318       .  A
N242       Mn478   2.192   1_556  S
N243        C250   1.355       .  A
N244        N245   1.317       .  A
N244       Mn684   2.186       .  S
N245        C250   1.351       .  A
N246        N247   1.319       .  A
N247        C249   1.352       .  A
Mn248      N1527   2.200   1_455  S
Mn248      N1095   2.194   1_465  S
Mn248       N680   2.189       .  S
C249        C326   1.483       .  S
C250        C406   1.489       .  S
N251        N252   1.318       .  A
N251        N257   1.314       .  A
N251       Mn695   2.193       .  S
N252        C262   1.352       .  A
N253        N254   1.316       .  A
N253        N255   1.315       .  A
N253       Mn260   2.183       .  S
N254        C263   1.348       .  A
N255        N256   1.321       .  A
N255       Mn259   2.209       .  S
N256        C263   1.357       .  A
N257        N258   1.317       .  A
N257       Mn696   2.184       .  S
N258        C262   1.353       .  A
Mn259      N1101   2.204   1_455  S
Mn259      N1541   2.209   1_445  S
Mn259       N687   2.199   1_545  S
Mn259      Cl261   2.555       .  S
Mn260       N460   2.195   1_545  S
Mn260       N693   2.189   1_545  S
Mn260      Cl261   2.534       .  S
Cl261     Mn1545   2.534   1_455  S
C262        C342   1.488       .  S
C263        C313   1.486       .  S
N264        N265   1.321       .  A
N264        N270   1.315       .  A
N264       Mn293   2.212       .  S
N265        C272   1.355       .  A
N266        N268   1.315       .  A
N266        N267   1.317       .  A
N266       Mn282   2.191       .  S
N267        C273   1.349       .  A
N268        N269   1.321       .  A
N268       Mn293   2.200       .  S
N269        C273   1.354       .  A
N270        N271   1.318       .  A
N270       Mn282   2.194       .  S
N271        C272   1.354       .  A
C272        C425   1.497       .  S
C273        C361   1.474       .  S
N274        N280   1.314       .  A
N274        N275   1.319       .  A
N274       Mn304   2.193       .  S
N275        C283   1.353       .  A
N276        N277   1.320       .  A
N276        N278   1.314       .  A
N276       Mn282   2.197       .  S
N277        C284   1.354       .  A
N278        N279   1.318       .  A
N278       Mn304   2.200       .  S
N279        C284   1.352       .  A
N280        N281   1.316       .  A
N280       Mn282   2.188       .  S
N281        C283   1.353       .  A
Mn282      Cl306   2.534       .  S
C283        C390   1.487       .  S
C284        C374   1.491       .  S
N285        N286   1.321       .  A
N285        N291   1.315       .  A
N285       Mn293   2.213       .  S
N286        C294   1.358       .  A
N287        N289   1.314       .  A
N287        N288   1.317       .  A
N287       Mn305   2.186       .  S
N288        C295   1.353       .  A
N289        N290   1.318       .  A
N289       Mn293   2.193       .  S
N290        C295   1.352       .  A
N291        N292   1.317       .  A
N291       Mn305   2.183       .  S
N292        C294   1.348       .  A
Mn293      Cl306   2.553       .  S
C294        C310   1.487       .  S
C295        C345   1.488       .  S
N296        N297   1.318       .  A
N296        N302   1.313       .  A
N296       Mn304   2.191       .  S
N297        C307   1.352       .  A
N298        N299   1.319       .  A
N298        N300   1.315       .  A
N298       Mn305   2.193       .  S
N299        C308   1.352       .  A
N300        N301   1.321       .  A
N300       Mn304   2.207       .  S
N301        C308   1.354       .  A
N302        N303   1.318       .  A
N302       Mn305   2.192       .  S
N303        C307   1.355       .  A
Mn304      Cl306   2.549       .  S
Mn305      Cl306   2.534       .  S
C307        C409   1.490       .  S
C308        C329   1.483       .  S
C309        C310   1.404       .  A
C309        C314   1.405       .  A
C309        H316   1.082       .  S
C310        C311   1.423       .  A
C311        C312   1.405       .  A
C311        C318   1.522       .  S
C312        C313   1.404       .  A
C312        H317   1.082       .  S
C313        C314   1.422       .  A
C314        C315   1.522       .  S
C315        F319   1.385       .  S
C315        F320   1.384       .  S
C315        F321   1.383       .  S
C318        F322   1.383       .  S
C318        F323   1.383       .  S
C318        F324   1.385       .  S
C325        C326   1.403       .  A
C325        C330   1.407       .  A
C325        H332   1.085       .  S
C326        C327   1.419       .  A
C327        C328   1.408       .  A
C327        C334   1.520       .  S
C328        C329   1.404       .  A
C328        H333   1.085       .  S
C329        C330   1.419       .  A
C330        C331   1.520       .  S
C331        F335   1.385       .  S
C331        F336   1.384       .  S
C331        F337   1.383       .  S
C334        F338   1.383       .  S
C334        F339   1.384       .  S
C334        F340   1.384       .  S
C341        C342   1.405       .  A
C341        C346   1.403       .  A
C341        H348   1.081       .  S
C342        C343   1.421       .  A
C343        C344   1.403       .  A
C343        C350   1.519       .  S
C344        C345   1.405       .  A
C344        H349   1.081       .  S
C345        C346   1.421       .  A
C346        C347   1.519       .  S
C347        F351   1.385       .  S
C347        F352   1.383       .  S
C347        F353   1.382       .  S
C350        F354   1.382       .  S
C350        F355   1.383       .  S
C350        F356   1.385       .  S
C357        C358   1.404       .  A
C357        C362   1.407       .  A
C357        H364   1.083       .  S
C358        C359   1.417       .  A
C359        C360   1.406       .  A
C359        C366   1.519       .  S
C360        C361   1.403       .  A
C360        H365   1.083       .  S
C361        C362   1.415       .  A
C362        C363   1.520       .  S
C363        F367   1.384       .  S
C363        F368   1.384       .  S
C363        F369   1.382       .  S
C366        F370   1.382       .  S
C366        F371   1.384       .  S
C366        F372   1.384       .  S
C373        C374   1.405       .  A
C373        C378   1.409       .  A
C373        H380   1.080       .  S
C374        C375   1.422       .  A
C375        C376   1.406       .  A
C375        C382   1.521       .  S
C376        C377   1.404       .  A
C376        H381   1.080       .  S
C377        C378   1.424       .  A
C378        C379   1.522       .  S
C379        F383   1.385       .  S
C379        F384   1.383       .  S
C379        F385   1.384       .  S
C382        F386   1.384       .  S
C382        F387   1.383       .  S
C382        F388   1.384       .  S
C389        C390   1.407       .  A
C389        C394   1.404       .  A
C389        H396   1.082       .  S
C390        C391   1.420       .  A
C391        C392   1.404       .  A
C391        C398   1.523       .  S
C392        C393   1.407       .  A
C392        H397   1.082       .  S
C393        C394   1.420       .  A
C394        C395   1.522       .  S
C395        F399   1.385       .  S
C395        F400   1.383       .  S
C395        F401   1.383       .  S
C398        F402   1.383       .  S
C398        F403   1.383       .  S
C398        F404   1.385       .  S
C405        C406   1.406       .  A
C405        C410   1.405       .  A
C405        H412   1.080       .  S
C406        C407   1.422       .  A
C407        C408   1.405       .  A
C407        C414   1.523       .  S
C408        C409   1.407       .  A
C408        H413   1.080       .  S
C409        C410   1.422       .  A
C410        C411   1.522       .  S
C411        F415   1.385       .  S
C411        F416   1.383       .  S
C411        F417   1.383       .  S
C414        F418   1.383       .  S
C414        F419   1.383       .  S
C414        F420   1.385       .  S
C421        C422   1.407       .  A
C421        C426   1.408       .  A
C421        H428   1.081       .  S
C422        C423   1.422       .  A
C423        C424   1.408       .  A
C423        C430   1.519       .  S
C424        C425   1.407       .  A
C424        H429   1.081       .  S
C425        C426   1.422       .  A
C426        C427   1.520       .  S
C427        F431   1.385       .  S
C427        F432   1.379       .  S
C427        F433   1.383       .  S
C430        F434   1.383       .  S
C430        F435   1.379       .  S
C430        F436   1.385       .  S
N437        N438   1.319       .  A
N437        N443   1.315       .  A
N437       Mn902   2.194   1_565  S
N438        C445   1.351       .  A
N439        N441   1.314       .  A
N439        N440   1.317       .  A
N440        C446   1.353       .  A
N441        N442   1.319       .  A
N441      Mn1338   2.195       .  S
N442        C446   1.353       .  A
N443        N444   1.320       .  A
N443       Mn673   2.202   1_565  S
N444        C445   1.354       .  A
C445        C595   1.484       .  S
C446        C611   1.489       .  S
N447        N453   1.316       .  A
N447        N448   1.321       .  A
N447      Mn1349   2.203       .  S
N448        C456   1.354       .  A
N449        N450   1.318       .  A
N449        N451   1.315       .  A
N449       Mn455   2.191   1_564  S
N450        C457   1.353       .  A
N451        N452   1.321       .  A
N451       Mn913   2.212   1_565  S
N452        C457   1.355       .  A
N453        N454   1.319       .  A
N454        C456   1.351       .  A
Mn455       N661   2.203   1_545  S
Mn455      Cl915   2.535       .  S
C456        C576   1.480       .  S
C457        C640   1.495       .  S
N458        N459   1.321       .  A
N458        N464   1.314       .  A
N458       Mn466   2.206       .  S
N459        C467   1.354       .  A
N460        N462   1.314       .  A
N460        N461   1.319       .  A
N461        C468   1.354       .  A
N462        N463   1.318       .  A
N463        C468   1.352       .  A
N464        N465   1.319       .  A
N464       Mn696   2.193       .  S
N465        C467   1.352       .  A
Mn466       N873   2.199   1_455  S
Mn466      N1313   2.195   1_455  S
Mn466      Cl697   2.549       .  S
C467        C544   1.483       .  S
C468        C624   1.486       .  S
N469        N470   1.319       .  A
N469        N475   1.314       .  A
N470        C480   1.352       .  A
N471        N472   1.315       .  A
N471        N473   1.315       .  A
N471       Mn478   2.180       .  S
N472        C481   1.347       .  A
N473        N474   1.322       .  A
N473       Mn477   2.217       .  S
N474        C481   1.359       .  A
N475        N476   1.317       .  A
N476        C480   1.352       .  A
Mn477      N1319   2.203   1_455  S
Mn477       N887   2.213   1_455  S
Mn477      Cl479   2.554       .  S
Mn478       N682   2.193   1_554  S
Mn478      Cl479   2.532       .  S
Cl479      Mn891   2.534   1_455  S
Cl479      Mn684   2.547   1_554  S
C480        C560   1.484       .  S
C481        C531   1.489       .  S
N482        N483   1.321       .  A
N482        N488   1.315       .  A
N482       Mn511   2.212       .  S
N483        C490   1.355       .  A
N484        N486   1.315       .  A
N484        N485   1.318       .  A
N484       Mn500   2.194       .  S
N485        C491   1.350       .  A
N486        N487   1.321       .  A
N486       Mn511   2.202       .  S
N487        C491   1.354       .  A
N488        N489   1.318       .  A
N488       Mn500   2.191       .  S
N489        C490   1.353       .  A
C490        C643   1.495       .  S
C491        C579   1.478       .  S
N492        N498   1.313       .  A
N492        N493   1.319       .  A
N492       Mn522   2.195       .  S
N493        C501   1.353       .  A
N494        N495   1.321       .  A
N494        N496   1.315       .  A
N494       Mn500   2.203       .  S
N495        C502   1.354       .  A
N496        N497   1.320       .  A
N496       Mn522   2.202       .  S
N497        C502   1.352       .  A
N498        N499   1.316       .  A
N498       Mn500   2.184       .  S
N499        C501   1.353       .  A
Mn500      Cl524   2.534       .  S
C501        C608   1.488       .  S
C502        C592   1.487       .  S
N503        N504   1.322       .  A
N503        N509   1.315       .  A
N503       Mn511   2.217       .  S
N504        C512   1.358       .  A
N505        N507   1.314       .  A
N505        N506   1.317       .  A
N505       Mn523   2.186       .  S
N506        C513   1.352       .  A
N507        N508   1.319       .  A
N507       Mn511   2.197       .  S
N508        C513   1.352       .  A
N509        N510   1.317       .  A
N509       Mn523   2.183       .  S
N510        C512   1.348       .  A
Mn511      Cl524   2.553       .  S
C512        C528   1.489       .  S
C513        C563   1.484       .  S
N514        N515   1.318       .  A
N514        N520   1.314       .  A
N514       Mn522   2.193       .  S
N515        C525   1.352       .  A
N516        N517   1.319       .  A
N516        N518   1.315       .  A
N516       Mn523   2.192       .  S
N517        C526   1.352       .  A
N518        N519   1.321       .  A
N518       Mn522   2.207       .  S
N519        C526   1.354       .  A
N520        N521   1.318       .  A
N520       Mn523   2.193       .  S
N521        C525   1.354       .  A
Mn522      Cl524   2.550       .  S
Mn523      Cl524   2.534       .  S
C525        C627   1.485       .  S
C526        C547   1.484       .  S
C527        C528   1.404       .  A
C527        C532   1.406       .  A
C527        H534   1.082       .  S
C528        C529   1.423       .  A
C529        C530   1.406       .  A
C529        C536   1.522       .  S
C530        C531   1.404       .  A
C530        H535   1.082       .  S
C531        C532   1.424       .  A
C532        C533   1.523       .  S
C533        F537   1.385       .  S
C533        F538   1.383       .  S
C533        F539   1.383       .  S
C536        F540   1.383       .  S
C536        F541   1.383       .  S
C536        F542   1.385       .  S
C543        C544   1.404       .  A
C543        C548   1.407       .  A
C543        H550   1.085       .  S
C544        C545   1.419       .  A
C545        C546   1.407       .  A
C545        C552   1.520       .  S
C546        C547   1.404       .  A
C546        H551   1.085       .  S
C547        C548   1.419       .  A
C548        C549   1.520       .  S
C549        F553   1.384       .  S
C549        F554   1.384       .  S
C549        F555   1.383       .  S
C552        F556   1.383       .  S
C552        F557   1.384       .  S
C552        F558   1.385       .  S
C559        C560   1.405       .  A
C559        C564   1.404       .  A
C559        H566   1.081       .  S
C560        C561   1.420       .  A
C561        C562   1.404       .  A
C561        C568   1.521       .  S
C562        C563   1.405       .  A
C562        H567   1.081       .  S
C563        C564   1.420       .  A
C564        C565   1.521       .  S
C565        F569   1.385       .  S
C565        F570   1.383       .  S
C565        F571   1.382       .  S
C568        F572   1.382       .  S
C568        F573   1.383       .  S
C568        F574   1.385       .  S
C575        C576   1.404       .  A
C575        C580   1.407       .  A
C575        H582   1.083       .  S
C576        C577   1.418       .  A
C577        C578   1.406       .  A
C577        C584   1.520       .  S
C578        C579   1.403       .  A
C578        H583   1.083       .  S
C579        C580   1.417       .  A
C580        C581   1.520       .  S
C581        F585   1.384       .  S
C581        F586   1.384       .  S
C581        F587   1.382       .  S
C584        F588   1.382       .  S
C584        F589   1.384       .  S
C584        F590   1.384       .  S
C591        C592   1.404       .  A
C591        C596   1.408       .  A
C591        H598   1.081       .  S
C592        C593   1.422       .  A
C593        C594   1.406       .  A
C593        C600   1.520       .  S
C594        C595   1.402       .  A
C594        H599   1.081       .  S
C595        C596   1.421       .  A
C596        C597   1.521       .  S
C597        F601   1.385       .  S
C597        F602   1.383       .  S
C597        F603   1.384       .  S
C600        F604   1.384       .  S
C600        F605   1.383       .  S
C600        F606   1.385       .  S
C607        C608   1.408       .  A
C607        C612   1.404       .  A
C607        H614   1.082       .  S
C608        C609   1.420       .  A
C609        C610   1.404       .  A
C609        C616   1.522       .  S
C610        C611   1.407       .  A
C610        H615   1.082       .  S
C611        C612   1.421       .  A
C612        C613   1.523       .  S
C613        F617   1.385       .  S
C613        F618   1.383       .  S
C613        F619   1.384       .  S
C616        F620   1.384       .  S
C616        F621   1.383       .  S
C616        F622   1.385       .  S
C623        C624   1.406       .  A
C623        C628   1.406       .  A
C623        H630   1.081       .  S
C624        C625   1.420       .  A
C625        C626   1.405       .  A
C625        C632   1.522       .  S
C626        C627   1.406       .  A
C626        H631   1.081       .  S
C627        C628   1.419       .  A
C628        C629   1.522       .  S
C629        F633   1.385       .  S
C629        F634   1.384       .  S
C629        F635   1.383       .  S
C632        F636   1.382       .  S
C632        F637   1.384       .  S
C632        F638   1.385       .  S
C639        C640   1.407       .  A
C639        C644   1.408       .  A
C639        H646   1.081       .  S
C640        C641   1.422       .  A
C641        C642   1.408       .  A
C641        C648   1.521       .  S
C642        C643   1.407       .  A
C642        H647   1.081       .  S
C643        C644   1.422       .  A
C644        C645   1.521       .  S
C645        F649   1.385       .  S
C645        F650   1.382       .  S
C645        F651   1.383       .  S
C648        F652   1.383       .  S
C648        F653   1.382       .  S
C648        F654   1.385       .  S
N655        N656   1.319       .  A
N655        N661   1.315       .  A
N655      Mn1120   2.200       .  S
N656        C663   1.352       .  A
N657        N659   1.313       .  A
N657        N658   1.316       .  A
N658        C664   1.353       .  A
N659        N660   1.317       .  A
N659      Mn1556   2.185       .  S
N660        C664   1.351       .  A
N661        N662   1.321       .  A
N662        C663   1.355       .  A
C663        C813   1.490       .  S
C664        C829   1.485       .  S
N665        N671   1.315       .  A
N665        N666   1.321       .  A
N665      Mn1567   2.201       .  S
N666        C674   1.354       .  A
N667        N668   1.318       .  A
N667        N669   1.315       .  A
N667       Mn673   2.197   1_565  S
N668        C675   1.354       .  A
N669        N670   1.322       .  A
N669      Mn1131   2.210   1_565  S
N670        C675   1.355       .  A
N671        N672   1.318       .  A
N672        C674   1.349       .  A
Mn673     Cl1133   2.534       .  S
C674        C794   1.475       .  S
C675        C858   1.495       .  S
N676        N677   1.320       .  A
N676        N682   1.314       .  A
N676       Mn684   2.200       .  S
N677        C685   1.353       .  A
N678        N680   1.313       .  A
N678        N679   1.318       .  A
N679        C686   1.355       .  A
N680        N681   1.317       .  A
N681        C686   1.351       .  A
N682        N683   1.319       .  A
N683        C685   1.352       .  A
Mn684      N1091   2.194   1_455  S
Mn684      N1531   2.185   1_455  S
C685        C762   1.482       .  S
C686        C842   1.486       .  S
N687        N688   1.319       .  A
N687        N693   1.314       .  A
N688        C698   1.353       .  A
N689        N690   1.317       .  A
N689        N691   1.315       .  A
N689       Mn696   2.182       .  S
N690        C699   1.348       .  A
N691        N692   1.321       .  A
N691       Mn695   2.213       .  S
N692        C699   1.358       .  A
N693        N694   1.317       .  A
N694        C698   1.353       .  A
Mn695      N1537   2.201   1_455  S
Mn695      N1105   2.214   1_455  S
Mn695      Cl697   2.553       .  S
Mn696      Cl697   2.534       .  S
Cl697     Mn1109   2.534   1_455  S
C698        C778   1.491       .  S
C699        C749   1.486       .  S
N700        N701   1.321       .  A
N700        N706   1.315       .  A
N700       Mn729   2.209       .  S
N701        C708   1.355       .  A
N702        N704   1.315       .  A
N702        N703   1.318       .  A
N702       Mn718   2.195       .  S
N703        C709   1.350       .  A
N704        N705   1.322       .  A
N704       Mn729   2.204       .  S
N705        C709   1.354       .  A
N706        N707   1.318       .  A
N706       Mn718   2.196       .  S
N707        C708   1.354       .  A
C708        C861   1.495       .  S
C709        C797   1.477       .  S
N710        N716   1.314       .  A
N710        N711   1.318       .  A
N710       Mn740   2.193       .  S
N711        C719   1.352       .  A
N712        N713   1.320       .  A
N712        N714   1.315       .  A
N712       Mn718   2.201       .  S
N713        C720   1.355       .  A
N714        N715   1.319       .  A
N714       Mn740   2.194       .  S
N715        C720   1.351       .  A
N716        N717   1.317       .  A
N716       Mn718   2.187       .  S
N717        C719   1.353       .  A
Mn718      Cl742   2.535       .  S
C719        C826   1.488       .  S
C720        C810   1.488       .  S
N721        N722   1.321       .  A
N721        N727   1.315       .  A
N721       Mn729   2.208       .  S
N722        C730   1.357       .  A
N723        N725   1.314       .  A
N723        N724   1.317       .  A
N723       Mn741   2.189       .  S
N724        C731   1.353       .  A
N725        N726   1.319       .  A
N725       Mn729   2.198       .  S
N726        C731   1.353       .  A
N727        N728   1.316       .  A
N727       Mn741   2.182       .  S
N728        C730   1.348       .  A
Mn729      Cl742   2.554       .  S
C730        C746   1.485       .  S
C731        C781   1.491       .  S
N732        N733   1.318       .  A
N732        N738   1.313       .  A
N732       Mn740   2.192       .  S
N733        C743   1.351       .  A
N734        N735   1.319       .  A
N734        N736   1.314       .  A
N734       Mn741   2.198       .  S
N735        C744   1.353       .  A
N736        N737   1.321       .  A
N736       Mn740   2.202       .  S
N737        C744   1.353       .  A
N738        N739   1.319       .  A
N738       Mn741   2.194       .  S
N739        C743   1.355       .  A
Mn740      Cl742   2.548       .  S
Mn741      Cl742   2.534       .  S
C743        C845   1.488       .  S
C744        C765   1.483       .  S
C745        C746   1.404       .  A
C745        C750   1.405       .  A
C745        H752   1.082       .  S
C746        C747   1.422       .  A
C747        C748   1.405       .  A
C747        C754   1.522       .  S
C748        C749   1.404       .  A
C748        H753   1.082       .  S
C749        C750   1.423       .  A
C750        C751   1.522       .  S
C751        F755   1.385       .  S
C751        F756   1.383       .  S
C751        F757   1.383       .  S
C754        F758   1.383       .  S
C754        F759   1.384       .  S
C754        F760   1.385       .  S
C761        C762   1.403       .  A
C761        C766   1.407       .  A
C761        H768   1.085       .  S
C762        C763   1.419       .  A
C763        C764   1.407       .  A
C763        C770   1.520       .  S
C764        C765   1.403       .  A
C764        H769   1.085       .  S
C765        C766   1.420       .  A
C766        C767   1.520       .  S
C767        F771   1.385       .  S
C767        F772   1.384       .  S
C767        F773   1.383       .  S
C770        F774   1.383       .  S
C770        F775   1.384       .  S
C770        F776   1.385       .  S
C777        C778   1.406       .  A
C777        C782   1.405       .  A
C777        H784   1.081       .  S
C778        C779   1.421       .  A
C779        C780   1.405       .  A
C779        C786   1.519       .  S
C780        C781   1.406       .  A
C780        H785   1.081       .  S
C781        C782   1.421       .  A
C782        C783   1.519       .  S
C783        F787   1.385       .  S
C783        F788   1.383       .  S
C783        F789   1.382       .  S
C786        F790   1.382       .  S
C786        F791   1.383       .  S
C786        F792   1.385       .  S
C793        C794   1.403       .  A
C793        C798   1.406       .  A
C793        H800   1.083       .  S
C794        C795   1.416       .  A
C795        C796   1.407       .  A
C795        C802   1.520       .  S
C796        C797   1.404       .  A
C796        H801   1.083       .  S
C797        C798   1.417       .  A
C798        C799   1.519       .  S
C799        F803   1.384       .  S
C799        F804   1.384       .  S
C799        F805   1.382       .  S
C802        F806   1.382       .  S
C802        F807   1.384       .  S
C802        F808   1.384       .  S
C809        C810   1.403       .  A
C809        C814   1.407       .  A
C809        H816   1.080       .  S
C810        C811   1.422       .  A
C811        C812   1.408       .  A
C811        C818   1.522       .  S
C812        C813   1.405       .  A
C812        H817   1.080       .  S
C813        C814   1.423       .  A
C814        C815   1.521       .  S
C815        F819   1.385       .  S
C815        F820   1.383       .  S
C815        F821   1.383       .  S
C818        F822   1.384       .  S
C818        F823   1.383       .  S
C818        F824   1.385       .  S
C825        C826   1.408       .  A
C825        C830   1.404       .  A
C825        H832   1.082       .  S
C826        C827   1.421       .  A
C827        C828   1.403       .  A
C827        C834   1.522       .  S
C828        C829   1.406       .  A
C828        H833   1.082       .  S
C829        C830   1.421       .  A
C830        C831   1.523       .  S
C831        F835   1.385       .  S
C831        F836   1.383       .  S
C831        F837   1.384       .  S
C834        F838   1.383       .  S
C834        F839   1.383       .  S
C834        F840   1.385       .  S
C841        C842   1.406       .  A
C841        C846   1.405       .  A
C841        H848   1.081       .  S
C842        C843   1.421       .  A
C843        C844   1.405       .  A
C843        C850   1.522       .  S
C844        C845   1.407       .  A
C844        H849   1.081       .  S
C845        C846   1.421       .  A
C846        C847   1.522       .  S
C847        F851   1.385       .  S
C847        F852   1.384       .  S
C847        F853   1.383       .  S
C850        F854   1.383       .  S
C850        F855   1.384       .  S
C850        F856   1.385       .  S
C857        C858   1.407       .  A
C857        C862   1.407       .  A
C857        H864   1.081       .  S
C858        C859   1.422       .  A
C859        C860   1.407       .  A
C859        C866   1.520       .  S
C860        C861   1.407       .  A
C860        H865   1.081       .  S
C861        C862   1.422       .  A
C862        C863   1.520       .  S
C863        F867   1.385       .  S
C863        F868   1.380       .  S
C863        F869   1.383       .  S
C866        F870   1.383       .  S
C866        F871   1.380       .  S
C866        F872   1.385       .  S
N873        N874   1.319       .  A
N873        N879   1.315       .  A
N874        C881   1.352       .  A
N875        N877   1.314       .  A
N875        N876   1.317       .  A
N875      Mn1545   2.188       .  S
N876        C882   1.353       .  A
N877        N878   1.318       .  A
N878        C882   1.352       .  A
N879        N880   1.320       .  A
N879      Mn1109   2.198       .  S
N880        C881   1.354       .  A
C881       C1031   1.489       .  S
C882       C1047   1.488       .  S
N883        N889   1.315       .  A
N883        N884   1.321       .  A
N884        C892   1.354       .  A
N885        N886   1.317       .  A
N885        N887   1.316       .  A
N885       Mn891   2.189       .  S
N886        C893   1.351       .  A
N887        N888   1.322       .  A
N888        C893   1.355       .  A
N889        N890   1.318       .  A
N889      Mn1327   2.194   1_554  S
N890        C892   1.350       .  A
Mn891      N1529   2.185   1_554  S
Mn891      N1097   2.204   1_554  S
Mn891      N1325   2.199       .  S
C892       C1012   1.478       .  S
C893       C1076   1.484       .  S
N894        N895   1.321       .  A
N894        N900   1.314       .  A
N894       Mn902   2.200       .  S
N895        C903   1.353       .  A
N896        N898   1.313       .  A
N896        N897   1.318       .  A
N896      Mn1568   2.193       .  S
N897        C904   1.354       .  A
N898        N899   1.319       .  A
N898      Mn1338   2.195       .  S
N899        C904   1.352       .  A
N900        N901   1.319       .  A
N900      Mn1132   2.197       .  S
N901        C903   1.353       .  A
Mn902      N1334   2.195   1_545  S
Mn902     Cl1133   2.549       .  S
C903        C980   1.483       .  S
C904       C1060   1.489       .  S
N905        N906   1.318       .  A
N905        N911   1.314       .  A
N905      Mn1349   2.195       .  S
N906        C916   1.352       .  A
N907        N908   1.316       .  A
N907        N909   1.315       .  A
N907       Mn914   2.182   1_554  S
N908        C917   1.348       .  A
N909        N910   1.322       .  A
N909       Mn913   2.217       .  S
N910        C917   1.359       .  A
N911        N912   1.316       .  A
N911      Mn1350   2.186       .  S
N912        C916   1.353       .  A
Mn913      N1341   2.196   1_545  S
Mn913      Cl915   2.553   1_554  S
Mn914      N1550   2.193   1_545  S
Mn914      N1118   2.192       .  S
Mn914      N1347   2.186   1_546  S
Mn914      Cl915   2.534       .  S
Cl915     Mn1120   2.549   1_545  S
C916        C996   1.489       .  S
C917        C967   1.489       .  S
N918        N919   1.322       .  A
N918        N924   1.316       .  A
N918       Mn947   2.214       .  S
N919        C926   1.355       .  A
N920        N922   1.315       .  A
N920        N921   1.319       .  A
N920       Mn936   2.198       .  S
N921        C927   1.351       .  A
N922        N923   1.321       .  A
N922       Mn947   2.204       .  S
N923        C927   1.355       .  A
N924        N925   1.318       .  A
N924       Mn936   2.192       .  S
N925        C926   1.352       .  A
C926       C1079   1.484       .  S
C927       C1015   1.480       .  S
N928        N934   1.313       .  A
N928        N929   1.317       .  A
N928       Mn958   2.185       .  S
N929        C937   1.351       .  A
N930        N931   1.320       .  A
N930        N932   1.315       .  A
N930       Mn936   2.204       .  S
N931        C938   1.355       .  A
N932        N933   1.319       .  A
N932       Mn958   2.195       .  S
N933        C938   1.351       .  A
N934        N935   1.316       .  A
N934       Mn936   2.186       .  S
N935        C937   1.354       .  A
Mn936      Cl960   2.534       .  S
C937       C1044   1.486       .  S
C938       C1028   1.489       .  S
N939        N940   1.322       .  A
N939        N945   1.315       .  A
N939       Mn947   2.216       .  S
N940        C948   1.359       .  A
N941        N943   1.314       .  A
N941        N942   1.316       .  A
N941       Mn959   2.183       .  S
N942        C949   1.353       .  A
N943        N944   1.318       .  A
N943       Mn947   2.196       .  S
N944        C949   1.353       .  A
N945        N946   1.315       .  A
N945       Mn959   2.181       .  S
N946        C948   1.347       .  A
Mn947      Cl960   2.554       .  S
C948        C964   1.489       .  S
C949        C999   1.489       .  S
N950        N951   1.317       .  A
N950        N956   1.313       .  A
N950       Mn958   2.187       .  S
N951        C961   1.351       .  A
N952        N953   1.319       .  A
N952        N954   1.314       .  A
N952       Mn959   2.192       .  S
N953        C962   1.352       .  A
N954        N955   1.321       .  A
N954       Mn958   2.201       .  S
N955        C962   1.354       .  A
N956        N957   1.319       .  A
N956       Mn959   2.194       .  S
N957        C961   1.355       .  A
Mn958      Cl960   2.548       .  S
Mn959      Cl960   2.532       .  S
C961       C1063   1.487       .  S
C962        C983   1.483       .  S
C963        C964   1.404       .  A
C963        C968   1.406       .  A
C963        H970   1.082       .  S
C964        C965   1.424       .  A
C965        C966   1.406       .  A
C965        C972   1.523       .  S
C966        C967   1.404       .  A
C966        H971   1.082       .  S
C967        C968   1.423       .  A
C968        C969   1.522       .  S
C969        F973   1.385       .  S
C969        F974   1.383       .  S
C969        F975   1.383       .  S
C972        F976   1.383       .  S
C972        F977   1.383       .  S
C972        F978   1.385       .  S
C979        C980   1.403       .  A
C979        C984   1.406       .  A
C979        H986   1.085       .  S
C980        C981   1.420       .  A
C981        C982   1.407       .  A
C981        C988   1.520       .  S
C982        C983   1.403       .  A
C982        H987   1.085       .  S
C983        C984   1.420       .  A
C984        C985   1.520       .  S
C985        F989   1.385       .  S
C985        F990   1.384       .  S
C985        F991   1.383       .  S
C988        F992   1.383       .  S
C988        F993   1.384       .  S
C988        F994   1.385       .  S
C995        C996   1.405       .  A
C995       C1000   1.403       .  A
C995       H1002   1.080       .  S
C996        C997   1.421       .  A
C997        C998   1.403       .  A
C997       C1004   1.517       .  S
C998        C999   1.405       .  A
C998       H1003   1.081       .  S
C999       C1000   1.421       .  A
C1000      C1001   1.517       .  S
C1001      F1005   1.385       .  S
C1001      F1006   1.383       .  S
C1001      F1007   1.379       .  S
C1004      F1008   1.379       .  S
C1004      F1009   1.383       .  S
C1004      F1010   1.385       .  S
C1011      C1012   1.403       .  A
C1011      C1016   1.406       .  A
C1011      H1018   1.083       .  S
C1012      C1013   1.417       .  A
C1013      C1014   1.407       .  A
C1013      C1020   1.520       .  S
C1014      C1015   1.404       .  A
C1014      H1019   1.083       .  S
C1015      C1016   1.418       .  A
C1016      C1017   1.520       .  S
C1017      F1021   1.385       .  S
C1017      F1022   1.384       .  S
C1017      F1023   1.382       .  S
C1020      F1024   1.382       .  S
C1020      F1025   1.384       .  S
C1020      F1026   1.384       .  S
C1027      C1028   1.404       .  A
C1027      C1032   1.407       .  A
C1027      H1034   1.080       .  S
C1028      C1029   1.423       .  A
C1029      C1030   1.408       .  A
C1029      C1036   1.522       .  S
C1030      C1031   1.405       .  A
C1030      H1035   1.080       .  S
C1031      C1032   1.422       .  A
C1032      C1033   1.521       .  S
C1033      F1037   1.385       .  S
C1033      F1038   1.383       .  S
C1033      F1039   1.384       .  S
C1036      F1040   1.384       .  S
C1036      F1041   1.383       .  S
C1036      F1042   1.385       .  S
C1043      C1044   1.406       .  A
C1043      C1048   1.403       .  A
C1043      H1050   1.082       .  S
C1044      C1045   1.421       .  A
C1045      C1046   1.404       .  A
C1045      C1052   1.523       .  S
C1046      C1047   1.408       .  A
C1046      H1051   1.082       .  S
C1047      C1048   1.421       .  A
C1048      C1049   1.522       .  S
C1049      F1053   1.385       .  S
C1049      F1054   1.383       .  S
C1049      F1055   1.383       .  S
C1052      F1056   1.384       .  S
C1052      F1057   1.383       .  S
C1052      F1058   1.385       .  S
C1059      C1060   1.407       .  A
C1059      C1064   1.405       .  A
C1059      H1066   1.081       .  S
C1060      C1061   1.421       .  A
C1061      C1062   1.406       .  A
C1061      C1068   1.522       .  S
C1062      C1063   1.406       .  A
C1062      H1067   1.081       .  S
C1063      C1064   1.421       .  A
C1064      C1065   1.523       .  S
C1065      F1069   1.385       .  S
C1065      F1070   1.384       .  S
C1065      F1071   1.383       .  S
C1068      F1072   1.382       .  S
C1068      F1073   1.384       .  S
C1068      F1074   1.385       .  S
C1075      C1076   1.404       .  A
C1075      C1080   1.405       .  A
C1075      H1082   1.082       .  S
C1076      C1077   1.416       .  A
C1077      C1078   1.405       .  A
C1077      C1084   1.513       .  S
C1078      C1079   1.404       .  A
C1078      H1083   1.082       .  S
C1079      C1080   1.417       .  A
C1080      C1081   1.514       .  S
C1081      F1085   1.385       .  S
C1081      F1086   1.384       .  S
C1081      F1087   1.382       .  S
C1084      F1088   1.382       .  S
C1084      F1089   1.384       .  S
C1084      F1090   1.385       .  S
N1091      N1092   1.319       .  A
N1091      N1097   1.314       .  A
N1092      C1099   1.351       .  A
N1093      N1095   1.313       .  A
N1093      N1094   1.316       .  A
N1093     Mn1327   2.184       .  S
N1094      C1100   1.352       .  A
N1095      N1096   1.319       .  A
N1096      C1100   1.353       .  A
N1097      N1098   1.320       .  A
N1098      C1099   1.356       .  A
C1099      C1249   1.491       .  S
C1100      C1265   1.487       .  S
N1101      N1107   1.315       .  A
N1101      N1102   1.322       .  A
N1102      C1110   1.354       .  A
N1103      N1104   1.318       .  A
N1103      N1105   1.315       .  A
N1103     Mn1109   2.196       .  S
N1104      C1111   1.354       .  A
N1105      N1106   1.322       .  A
N1106      C1111   1.356       .  A
N1107      N1108   1.319       .  A
N1107     Mn1545   2.196       .  S
N1108      C1110   1.350       .  A
Mn1109     N1311   2.188       .  S
Mn1109     N1543   2.192       .  S
C1110      C1230   1.477       .  S
C1111      C1294   1.497       .  S
N1112      N1113   1.321       .  A
N1112      N1118   1.315       .  A
N1112     Mn1120   2.206   1_545  S
N1113      C1121   1.354       .  A
N1114      N1116   1.313       .  A
N1114      N1115   1.318       .  A
N1114     Mn1350   2.192   1_556  S
N1115      C1122   1.355       .  A
N1116      N1117   1.317       .  A
N1116     Mn1556   2.186       .  S
N1117      C1122   1.351       .  A
N1118      N1119   1.319       .  A
N1119      C1121   1.352       .  A
Mn1120     N1552   2.189       .  S
C1121      C1198   1.483       .  S
C1122      C1278   1.489       .  S
N1123      N1124   1.318       .  A
N1123      N1129   1.314       .  A
N1123     Mn1567   2.194       .  S
N1124      C1134   1.352       .  A
N1125      N1126   1.316       .  A
N1125      N1127   1.315       .  A
N1125     Mn1132   2.183       .  S
N1126      C1135   1.348       .  A
N1127      N1128   1.321       .  A
N1127     Mn1131   2.209       .  S
N1128      C1135   1.357       .  A
N1129      N1130   1.317       .  A
N1129     Mn1568   2.184       .  S
N1130      C1134   1.353       .  A
Mn1131     N1559   2.198   1_545  S
Mn1131    Cl1133   2.555       .  S
Mn1132     N1332   2.195   1_545  S
Mn1132     N1565   2.189   1_545  S
Mn1132    Cl1133   2.534       .  S
C1134      C1214   1.488       .  S
C1135      C1185   1.486       .  S
N1136      N1137   1.321       .  A
N1136      N1142   1.315       .  A
N1136     Mn1165   2.212       .  S
N1137      C1144   1.355       .  A
N1138      N1140   1.315       .  A
N1138      N1139   1.317       .  A
N1138     Mn1154   2.191       .  S
N1139      C1145   1.349       .  A
N1140      N1141   1.321       .  A
N1140     Mn1165   2.200       .  S
N1141      C1145   1.354       .  A
N1142      N1143   1.318       .  A
N1142     Mn1154   2.194       .  S
N1143      C1144   1.354       .  A
C1144      C1297   1.497       .  S
C1145      C1233   1.474       .  S
N1146      N1152   1.314       .  A
N1146      N1147   1.319       .  A
N1146     Mn1176   2.193       .  S
N1147      C1155   1.353       .  A
N1148      N1149   1.320       .  A
N1148      N1150   1.314       .  A
N1148     Mn1154   2.197       .  S
N1149      C1156   1.354       .  A
N1150      N1151   1.318       .  A
N1150     Mn1176   2.200       .  S
N1151      C1156   1.352       .  A
N1152      N1153   1.316       .  A
N1152     Mn1154   2.188       .  S
N1153      C1155   1.353       .  A
Mn1154    Cl1178   2.534       .  S
C1155      C1262   1.487       .  S
C1156      C1246   1.491       .  S
N1157      N1158   1.321       .  A
N1157      N1163   1.315       .  A
N1157     Mn1165   2.213       .  S
N1158      C1166   1.358       .  A
N1159      N1161   1.314       .  A
N1159      N1160   1.317       .  A
N1159     Mn1177   2.186       .  S
N1160      C1167   1.353       .  A
N1161      N1162   1.318       .  A
N1161     Mn1165   2.193       .  S
N1162      C1167   1.352       .  A
N1163      N1164   1.317       .  A
N1163     Mn1177   2.183       .  S
N1164      C1166   1.348       .  A
Mn1165    Cl1178   2.553       .  S
C1166      C1182   1.487       .  S
C1167      C1217   1.488       .  S
N1168      N1169   1.318       .  A
N1168      N1174   1.313       .  A
N1168     Mn1176   2.191       .  S
N1169      C1179   1.352       .  A
N1170      N1171   1.319       .  A
N1170      N1172   1.315       .  A
N1170     Mn1177   2.193       .  S
N1171      C1180   1.352       .  A
N1172      N1173   1.321       .  A
N1172     Mn1176   2.207       .  S
N1173      C1180   1.354       .  A
N1174      N1175   1.318       .  A
N1174     Mn1177   2.192       .  S
N1175      C1179   1.355       .  A
Mn1176    Cl1178   2.549       .  S
Mn1177    Cl1178   2.534       .  S
C1179      C1281   1.490       .  S
C1180      C1201   1.483       .  S
C1181      C1182   1.404       .  A
C1181      C1186   1.405       .  A
C1181      H1188   1.082       .  S
C1182      C1183   1.423       .  A
C1183      C1184   1.405       .  A
C1183      C1190   1.522       .  S
C1184      C1185   1.404       .  A
C1184      H1189   1.082       .  S
C1185      C1186   1.422       .  A
C1186      C1187   1.522       .  S
C1187      F1191   1.385       .  S
C1187      F1192   1.384       .  S
C1187      F1193   1.383       .  S
C1190      F1194   1.383       .  S
C1190      F1195   1.383       .  S
C1190      F1196   1.385       .  S
C1197      C1198   1.403       .  A
C1197      C1202   1.407       .  A
C1197      H1204   1.085       .  S
C1198      C1199   1.419       .  A
C1199      C1200   1.408       .  A
C1199      C1206   1.520       .  S
C1200      C1201   1.404       .  A
C1200      H1205   1.085       .  S
C1201      C1202   1.419       .  A
C1202      C1203   1.520       .  S
C1203      F1207   1.385       .  S
C1203      F1208   1.384       .  S
C1203      F1209   1.383       .  S
C1206      F1210   1.383       .  S
C1206      F1211   1.384       .  S
C1206      F1212   1.384       .  S
C1213      C1214   1.405       .  A
C1213      C1218   1.403       .  A
C1213      H1220   1.081       .  S
C1214      C1215   1.421       .  A
C1215      C1216   1.403       .  A
C1215      C1222   1.519       .  S
C1216      C1217   1.405       .  A
C1216      H1221   1.080       .  S
C1217      C1218   1.421       .  A
C1218      C1219   1.519       .  S
C1219      F1223   1.385       .  S
C1219      F1224   1.383       .  S
C1219      F1225   1.382       .  S
C1222      F1226   1.382       .  S
C1222      F1227   1.383       .  S
C1222      F1228   1.385       .  S
C1229      C1230   1.404       .  A
C1229      C1234   1.407       .  A
C1229      H1236   1.083       .  S
C1230      C1231   1.417       .  A
C1231      C1232   1.406       .  A
C1231      C1238   1.519       .  S
C1232      C1233   1.403       .  A
C1232      H1237   1.083       .  S
C1233      C1234   1.415       .  A
C1234      C1235   1.520       .  S
C1235      F1239   1.384       .  S
C1235      F1240   1.384       .  S
C1235      F1241   1.382       .  S
C1238      F1242   1.382       .  S
C1238      F1243   1.384       .  S
C1238      F1244   1.384       .  S
C1245      C1246   1.405       .  A
C1245      C1250   1.408       .  A
C1245      H1252   1.080       .  S
C1246      C1247   1.422       .  A
C1247      C1248   1.406       .  A
C1247      C1254   1.521       .  S
C1248      C1249   1.404       .  A
C1248      H1253   1.080       .  S
C1249      C1250   1.424       .  A
C1250      C1251   1.522       .  S
C1251      F1255   1.385       .  S
C1251      F1256   1.383       .  S
C1251      F1257   1.384       .  S
C1254      F1258   1.384       .  S
C1254      F1259   1.383       .  S
C1254      F1260   1.384       .  S
C1261      C1262   1.407       .  A
C1261      C1266   1.404       .  A
C1261      H1268   1.082       .  S
C1262      C1263   1.420       .  A
C1263      C1264   1.404       .  A
C1263      C1270   1.522       .  S
C1264      C1265   1.407       .  A
C1264      H1269   1.082       .  S
C1265      C1266   1.420       .  A
C1266      C1267   1.522       .  S
C1267      F1271   1.385       .  S
C1267      F1272   1.383       .  S
C1267      F1273   1.383       .  S
C1270      F1274   1.383       .  S
C1270      F1275   1.383       .  S
C1270      F1276   1.385       .  S
C1277      C1278   1.406       .  A
C1277      C1282   1.405       .  A
C1277      H1284   1.080       .  S
C1278      C1279   1.422       .  A
C1279      C1280   1.405       .  A
C1279      C1286   1.523       .  S
C1280      C1281   1.407       .  A
C1280      H1285   1.080       .  S
C1281      C1282   1.422       .  A
C1282      C1283   1.522       .  S
C1283      F1287   1.385       .  S
C1283      F1288   1.383       .  S
C1283      F1289   1.383       .  S
C1286      F1290   1.383       .  S
C1286      F1291   1.384       .  S
C1286      F1292   1.385       .  S
C1293      C1294   1.407       .  A
C1293      C1298   1.408       .  A
C1293      H1300   1.081       .  S
C1294      C1295   1.422       .  A
C1295      C1296   1.408       .  A
C1295      C1302   1.519       .  S
C1296      C1297   1.407       .  A
C1296      H1301   1.081       .  S
C1297      C1298   1.422       .  A
C1298      C1299   1.520       .  S
C1299      F1303   1.385       .  S
C1299      F1304   1.379       .  S
C1299      F1305   1.383       .  S
C1302      F1306   1.383       .  S
C1302      F1307   1.379       .  S
C1302      F1308   1.385       .  S
N1309      N1310   1.319       .  A
N1309      N1315   1.315       .  A
N1310      C1317   1.351       .  A
N1311      N1313   1.314       .  A
N1311      N1312   1.316       .  A
N1312      C1318   1.353       .  A
N1313      N1314   1.319       .  A
N1314      C1318   1.353       .  A
N1315      N1316   1.320       .  A
N1315     Mn1545   2.202   1_565  S
N1316      C1317   1.354       .  A
C1317      C1467   1.484       .  S
C1318      C1483   1.489       .  S
N1319      N1325   1.316       .  A
N1319      N1320   1.321       .  A
N1320      C1328   1.354       .  A
N1321      N1322   1.318       .  A
N1321      N1323   1.315       .  A
N1321     Mn1327   2.191   1_564  S
N1322      C1329   1.353       .  A
N1323      N1324   1.321       .  A
N1324      C1329   1.355       .  A
N1325      N1326   1.319       .  A
N1326      C1328   1.351       .  A
Mn1327     N1533   2.203   1_545  S
C1328      C1448   1.480       .  S
C1329      C1512   1.495       .  S
N1330      N1331   1.321       .  A
N1330      N1336   1.314       .  A
N1330     Mn1338   2.206       .  S
N1331      C1339   1.354       .  A
N1332      N1334   1.314       .  A
N1332      N1333   1.319       .  A
N1333      C1340   1.354       .  A
N1334      N1335   1.318       .  A
N1335      C1340   1.352       .  A
N1336      N1337   1.319       .  A
N1336     Mn1568   2.193       .  S
N1337      C1339   1.352       .  A
Mn1338    Cl1569   2.549       .  S
C1339      C1416   1.483       .  S
C1340      C1496   1.486       .  S
N1341      N1342   1.319       .  A
N1341      N1347   1.314       .  A
N1342      C1352   1.352       .  A
N1343      N1344   1.315       .  A
N1343      N1345   1.315       .  A
N1343     Mn1350   2.180       .  S
N1344      C1353   1.347       .  A
N1345      N1346   1.322       .  A
N1345     Mn1349   2.217       .  S
N1346      C1353   1.359       .  A
N1347      N1348   1.317       .  A
N1348      C1352   1.352       .  A
Mn1349    Cl1351   2.554       .  S
Mn1350     N1554   2.193   1_554  S
Mn1350    Cl1351   2.532       .  S
Cl1351    Mn1556   2.547   1_554  S
C1352      C1432   1.484       .  S
C1353      C1403   1.489       .  S
N1354      N1355   1.321       .  A
N1354      N1360   1.315       .  A
N1354     Mn1383   2.212       .  S
N1355      C1362   1.355       .  A
N1356      N1358   1.315       .  A
N1356      N1357   1.318       .  A
N1356     Mn1372   2.194       .  S
N1357      C1363   1.350       .  A
N1358      N1359   1.321       .  A
N1358     Mn1383   2.202       .  S
N1359      C1363   1.354       .  A
N1360      N1361   1.318       .  A
N1360     Mn1372   2.191       .  S
N1361      C1362   1.353       .  A
C1362      C1515   1.495       .  S
C1363      C1451   1.478       .  S
N1364      N1370   1.313       .  A
N1364      N1365   1.319       .  A
N1364     Mn1394   2.195       .  S
N1365      C1373   1.353       .  A
N1366      N1367   1.321       .  A
N1366      N1368   1.315       .  A
N1366     Mn1372   2.203       .  S
N1367      C1374   1.354       .  A
N1368      N1369   1.320       .  A
N1368     Mn1394   2.202       .  S
N1369      C1374   1.352       .  A
N1370      N1371   1.316       .  A
N1370     Mn1372   2.184       .  S
N1371      C1373   1.353       .  A
Mn1372    Cl1396   2.534       .  S
C1373      C1480   1.488       .  S
C1374      C1464   1.487       .  S
N1375      N1376   1.322       .  A
N1375      N1381   1.315       .  A
N1375     Mn1383   2.217       .  S
N1376      C1384   1.358       .  A
N1377      N1379   1.314       .  A
N1377      N1378   1.317       .  A
N1377     Mn1395   2.186       .  S
N1378      C1385   1.352       .  A
N1379      N1380   1.319       .  A
N1379     Mn1383   2.197       .  S
N1380      C1385   1.352       .  A
N1381      N1382   1.317       .  A
N1381     Mn1395   2.183       .  S
N1382      C1384   1.348       .  A
Mn1383    Cl1396   2.553       .  S
C1384      C1400   1.489       .  S
C1385      C1435   1.484       .  S
N1386      N1387   1.318       .  A
N1386      N1392   1.314       .  A
N1386     Mn1394   2.193       .  S
N1387      C1397   1.352       .  A
N1388      N1389   1.319       .  A
N1388      N1390   1.315       .  A
N1388     Mn1395   2.192       .  S
N1389      C1398   1.352       .  A
N1390      N1391   1.321       .  A
N1390     Mn1394   2.207       .  S
N1391      C1398   1.354       .  A
N1392      N1393   1.318       .  A
N1392     Mn1395   2.193       .  S
N1393      C1397   1.354       .  A
Mn1394    Cl1396   2.550       .  S
Mn1395    Cl1396   2.534       .  S
C1397      C1499   1.485       .  S
C1398      C1419   1.484       .  S
C1399      C1400   1.404       .  A
C1399      C1404   1.406       .  A
C1399      H1406   1.082       .  S
C1400      C1401   1.423       .  A
C1401      C1402   1.406       .  A
C1401      C1408   1.522       .  S
C1402      C1403   1.404       .  A
C1402      H1407   1.082       .  S
C1403      C1404   1.424       .  A
C1404      C1405   1.523       .  S
C1405      F1409   1.385       .  S
C1405      F1410   1.383       .  S
C1405      F1411   1.383       .  S
C1408      F1412   1.383       .  S
C1408      F1413   1.383       .  S
C1408      F1414   1.385       .  S
C1415      C1416   1.404       .  A
C1415      C1420   1.407       .  A
C1415      H1422   1.085       .  S
C1416      C1417   1.419       .  A
C1417      C1418   1.407       .  A
C1417      C1424   1.520       .  S
C1418      C1419   1.404       .  A
C1418      H1423   1.085       .  S
C1419      C1420   1.419       .  A
C1420      C1421   1.520       .  S
C1421      F1425   1.384       .  S
C1421      F1426   1.384       .  S
C1421      F1427   1.383       .  S
C1424      F1428   1.383       .  S
C1424      F1429   1.384       .  S
C1424      F1430   1.385       .  S
C1431      C1432   1.405       .  A
C1431      C1436   1.404       .  A
C1431      H1438   1.081       .  S
C1432      C1433   1.420       .  A
C1433      C1434   1.404       .  A
C1433      C1440   1.521       .  S
C1434      C1435   1.405       .  A
C1434      H1439   1.081       .  S
C1435      C1436   1.420       .  A
C1436      C1437   1.521       .  S
C1437      F1441   1.385       .  S
C1437      F1442   1.383       .  S
C1437      F1443   1.382       .  S
C1440      F1444   1.382       .  S
C1440      F1445   1.383       .  S
C1440      F1446   1.385       .  S
C1447      C1448   1.404       .  A
C1447      C1452   1.407       .  A
C1447      H1454   1.083       .  S
C1448      C1449   1.418       .  A
C1449      C1450   1.406       .  A
C1449      C1456   1.520       .  S
C1450      C1451   1.403       .  A
C1450      H1455   1.083       .  S
C1451      C1452   1.417       .  A
C1452      C1453   1.520       .  S
C1453      F1457   1.384       .  S
C1453      F1458   1.384       .  S
C1453      F1459   1.382       .  S
C1456      F1460   1.382       .  S
C1456      F1461   1.384       .  S
C1456      F1462   1.384       .  S
C1463      C1464   1.404       .  A
C1463      C1468   1.408       .  A
C1463      H1470   1.081       .  S
C1464      C1465   1.422       .  A
C1465      C1466   1.406       .  A
C1465      C1472   1.520       .  S
C1466      C1467   1.402       .  A
C1466      H1471   1.081       .  S
C1467      C1468   1.421       .  A
C1468      C1469   1.521       .  S
C1469      F1473   1.385       .  S
C1469      F1474   1.383       .  S
C1469      F1475   1.384       .  S
C1472      F1476   1.384       .  S
C1472      F1477   1.383       .  S
C1472      F1478   1.385       .  S
C1479      C1480   1.408       .  A
C1479      C1484   1.404       .  A
C1479      H1486   1.082       .  S
C1480      C1481   1.420       .  A
C1481      C1482   1.404       .  A
C1481      C1488   1.522       .  S
C1482      C1483   1.408       .  A
C1482      H1487   1.082       .  S
C1483      C1484   1.421       .  A
C1484      C1485   1.523       .  S
C1485      F1489   1.385       .  S
C1485      F1490   1.383       .  S
C1485      F1491   1.384       .  S
C1488      F1492   1.384       .  S
C1488      F1493   1.383       .  S
C1488      F1494   1.385       .  S
C1495      C1496   1.406       .  A
C1495      C1500   1.406       .  A
C1495      H1502   1.081       .  S
C1496      C1497   1.420       .  A
C1497      C1498   1.405       .  A
C1497      C1504   1.522       .  S
C1498      C1499   1.406       .  A
C1498      H1503   1.081       .  S
C1499      C1500   1.419       .  A
C1500      C1501   1.522       .  S
C1501      F1505   1.385       .  S
C1501      F1506   1.384       .  S
C1501      F1507   1.383       .  S
C1504      F1508   1.382       .  S
C1504      F1509   1.384       .  S
C1504      F1510   1.385       .  S
C1511      C1512   1.407       .  A
C1511      C1516   1.408       .  A
C1511      H1518   1.081       .  S
C1512      C1513   1.422       .  A
C1513      C1514   1.408       .  A
C1513      C1520   1.521       .  S
C1514      C1515   1.407       .  A
C1514      H1519   1.081       .  S
C1515      C1516   1.422       .  A
C1516      C1517   1.521       .  S
C1517      F1521   1.385       .  S
C1517      F1522   1.382       .  S
C1517      F1523   1.383       .  S
C1520      F1524   1.383       .  S
C1520      F1525   1.382       .  S
C1520      F1526   1.385       .  S
N1527      N1528   1.319       .  A
N1527      N1533   1.315       .  A
N1528      C1535   1.352       .  A
N1529      N1531   1.313       .  A
N1529      N1530   1.316       .  A
N1530      C1536   1.353       .  A
N1531      N1532   1.317       .  A
N1532      C1536   1.351       .  A
N1533      N1534   1.321       .  A
N1534      C1535   1.355       .  A
C1535      C1685   1.490       .  S
C1536      C1701   1.485       .  S
N1537      N1543   1.315       .  A
N1537      N1538   1.321       .  A
N1538      C1546   1.354       .  A
N1539      N1540   1.318       .  A
N1539      N1541   1.315       .  A
N1539     Mn1545   2.197   1_565  S
N1540      C1547   1.354       .  A
N1541      N1542   1.322       .  A
N1542      C1547   1.355       .  A
N1543      N1544   1.318       .  A
N1544      C1546   1.349       .  A
C1546      C1666   1.475       .  S
C1547      C1730   1.495       .  S
N1548      N1549   1.320       .  A
N1548      N1554   1.314       .  A
N1548     Mn1556   2.200       .  S
N1549      C1557   1.353       .  A
N1550      N1552   1.313       .  A
N1550      N1551   1.318       .  A
N1551      C1558   1.355       .  A
N1552      N1553   1.317       .  A
N1553      C1558   1.351       .  A
N1554      N1555   1.319       .  A
N1555      C1557   1.352       .  A
C1557      C1634   1.482       .  S
C1558      C1714   1.486       .  S
N1559      N1560   1.319       .  A
N1559      N1565   1.314       .  A
N1560      C1570   1.353       .  A
N1561      N1562   1.317       .  A
N1561      N1563   1.315       .  A
N1561     Mn1568   2.182       .  S
N1562      C1571   1.348       .  A
N1563      N1564   1.321       .  A
N1563     Mn1567   2.213       .  S
N1564      C1571   1.358       .  A
N1565      N1566   1.317       .  A
N1566      C1570   1.353       .  A
Mn1567    Cl1569   2.553       .  S
Mn1568    Cl1569   2.534       .  S
C1570      C1650   1.491       .  S
C1571      C1621   1.486       .  S
N1572      N1573   1.321       .  A
N1572      N1578   1.315       .  A
N1572     Mn1601   2.209       .  S
N1573      C1580   1.355       .  A
N1574      N1576   1.315       .  A
N1574      N1575   1.318       .  A
N1574     Mn1590   2.195       .  S
N1575      C1581   1.350       .  A
N1576      N1577   1.322       .  A
N1576     Mn1601   2.204       .  S
N1577      C1581   1.354       .  A
N1578      N1579   1.318       .  A
N1578     Mn1590   2.196       .  S
N1579      C1580   1.354       .  A
C1580      C1733   1.495       .  S
C1581      C1669   1.477       .  S
N1582      N1588   1.314       .  A
N1582      N1583   1.318       .  A
N1582     Mn1612   2.193       .  S
N1583      C1591   1.352       .  A
N1584      N1585   1.320       .  A
N1584      N1586   1.315       .  A
N1584     Mn1590   2.201       .  S
N1585      C1592   1.355       .  A
N1586      N1587   1.319       .  A
N1586     Mn1612   2.194       .  S
N1587      C1592   1.351       .  A
N1588      N1589   1.317       .  A
N1588     Mn1590   2.187       .  S
N1589      C1591   1.353       .  A
Mn1590    Cl1614   2.535       .  S
C1591      C1698   1.488       .  S
C1592      C1682   1.488       .  S
N1593      N1594   1.321       .  A
N1593      N1599   1.315       .  A
N1593     Mn1601   2.208       .  S
N1594      C1602   1.357       .  A
N1595      N1597   1.314       .  A
N1595      N1596   1.317       .  A
N1595     Mn1613   2.189       .  S
N1596      C1603   1.353       .  A
N1597      N1598   1.319       .  A
N1597     Mn1601   2.198       .  S
N1598      C1603   1.353       .  A
N1599      N1600   1.315       .  A
N1599     Mn1613   2.182       .  S
N1600      C1602   1.348       .  A
Mn1601    Cl1614   2.554       .  S
C1602      C1618   1.485       .  S
C1603      C1653   1.491       .  S
N1604      N1605   1.318       .  A
N1604      N1610   1.313       .  A
N1604     Mn1612   2.192       .  S
N1605      C1615   1.351       .  A
N1606      N1607   1.319       .  A
N1606      N1608   1.314       .  A
N1606     Mn1613   2.198       .  S
N1607      C1616   1.353       .  A
N1608      N1609   1.321       .  A
N1608     Mn1612   2.202       .  S
N1609      C1616   1.354       .  A
N1610      N1611   1.319       .  A
N1610     Mn1613   2.194       .  S
N1611      C1615   1.355       .  A
Mn1612    Cl1614   2.548       .  S
Mn1613    Cl1614   2.534       .  S
C1615      C1717   1.488       .  S
C1616      C1637   1.483       .  S
C1617      C1618   1.404       .  A
C1617      C1622   1.405       .  A
C1617      H1624   1.082       .  S
C1618      C1619   1.422       .  A
C1619      C1620   1.405       .  A
C1619      C1626   1.522       .  S
C1620      C1621   1.404       .  A
C1620      H1625   1.082       .  S
C1621      C1622   1.423       .  A
C1622      C1623   1.522       .  S
C1623      F1627   1.385       .  S
C1623      F1628   1.383       .  S
C1623      F1629   1.383       .  S
C1626      F1630   1.383       .  S
C1626      F1631   1.384       .  S
C1626      F1632   1.385       .  S
C1633      C1634   1.403       .  A
C1633      C1638   1.407       .  A
C1633      H1640   1.085       .  S
C1634      C1635   1.419       .  A
C1635      C1636   1.407       .  A
C1635      C1642   1.520       .  S
C1636      C1637   1.403       .  A
C1636      H1641   1.085       .  S
C1637      C1638   1.420       .  A
C1638      C1639   1.519       .  S
C1639      F1643   1.385       .  S
C1639      F1644   1.384       .  S
C1639      F1645   1.383       .  S
C1642      F1646   1.383       .  S
C1642      F1647   1.384       .  S
C1642      F1648   1.385       .  S
C1649      C1650   1.406       .  A
C1649      C1654   1.405       .  A
C1649      H1656   1.081       .  S
C1650      C1651   1.421       .  A
C1651      C1652   1.405       .  A
C1651      C1658   1.519       .  S
C1652      C1653   1.406       .  A
C1652      H1657   1.081       .  S
C1653      C1654   1.421       .  A
C1654      C1655   1.519       .  S
C1655      F1659   1.385       .  S
C1655      F1660   1.383       .  S
C1655      F1661   1.382       .  S
C1658      F1662   1.382       .  S
C1658      F1663   1.383       .  S
C1658      F1664   1.385       .  S
C1665      C1666   1.403       .  A
C1665      C1670   1.406       .  A
C1665      H1672   1.083       .  S
C1666      C1667   1.415       .  A
C1667      C1668   1.407       .  A
C1667      C1674   1.520       .  S
C1668      C1669   1.404       .  A
C1668      H1673   1.083       .  S
C1669      C1670   1.417       .  A
C1670      C1671   1.519       .  S
C1671      F1675   1.384       .  S
C1671      F1676   1.384       .  S
C1671      F1677   1.382       .  S
C1674      F1678   1.382       .  S
C1674      F1679   1.384       .  S
C1674      F1680   1.384       .  S
C1681      C1682   1.403       .  A
C1681      C1686   1.407       .  A
C1681      H1688   1.080       .  S
C1682      C1683   1.422       .  A
C1683      C1684   1.408       .  A
C1683      C1690   1.522       .  S
C1684      C1685   1.405       .  A
C1684      H1689   1.080       .  S
C1685      C1686   1.423       .  A
C1686      C1687   1.521       .  S
C1687      F1691   1.385       .  S
C1687      F1692   1.383       .  S
C1687      F1693   1.383       .  S
C1690      F1694   1.384       .  S
C1690      F1695   1.383       .  S
C1690      F1696   1.385       .  S
C1697      C1698   1.408       .  A
C1697      C1702   1.404       .  A
C1697      H1704   1.082       .  S
C1698      C1699   1.421       .  A
C1699      C1700   1.403       .  A
C1699      C1706   1.522       .  S
C1700      C1701   1.406       .  A
C1700      H1705   1.082       .  S
C1701      C1702   1.421       .  A
C1702      C1703   1.523       .  S
C1703      F1707   1.385       .  S
C1703      F1708   1.383       .  S
C1703      F1709   1.384       .  S
C1706      F1710   1.383       .  S
C1706      F1711   1.383       .  S
C1706      F1712   1.385       .  S
C1713      C1714   1.406       .  A
C1713      C1718   1.405       .  A
C1713      H1720   1.081       .  S
C1714      C1715   1.421       .  A
C1715      C1716   1.405       .  A
C1715      C1722   1.522       .  S
C1716      C1717   1.407       .  A
C1716      H1721   1.081       .  S
C1717      C1718   1.421       .  A
C1718      C1719   1.522       .  S
C1719      F1723   1.385       .  S
C1719      F1724   1.384       .  S
C1719      F1725   1.383       .  S
C1722      F1726   1.383       .  S
C1722      F1727   1.384       .  S
C1722      F1728   1.385       .  S
C1729      C1730   1.407       .  A
C1729      C1734   1.407       .  A
C1729      H1736   1.081       .  S
C1730      C1731   1.422       .  A
C1731      C1732   1.407       .  A
C1731      C1738   1.520       .  S
C1732      C1733   1.407       .  A
C1732      H1737   1.081       .  S
C1733      C1734   1.422       .  A
C1734      C1735   1.520       .  S
C1735      F1739   1.385       .  S
C1735      F1740   1.380       .  S
C1735      F1741   1.383       .  S
C1738      F1742   1.383       .  S
C1738      F1743   1.380       .  S
C1738      F1744   1.385       .  S
