geometry optimzed in LAMMPS
_audit_creation_date              2020-11-30 
_audit_creation_method            'lammps2cif' 
_symmetry_space_group_name_H-M    'P1' 
_symmetry_Int_Tables_number       1 
_symmetry_cell_setting            triclinic 
loop_ 
_symmetry_equiv_pos_as_xyz 
  x,y,z 
_cell_length_a                    41.63210214 
_cell_length_b                    25.438527555060052 
_cell_length_c                    41.67016231219877 
_cell_angle_alpha                 90.00371384097102 
_cell_angle_beta                  90.00151840786718 
_cell_angle_gamma                 90.02240568137017 
loop_ 
_atom_site_label 
_atom_site_type_symbol 
_atom_site_fract_x 
_atom_site_fract_y 
_atom_site_fract_z 
_atom_site_charge 
C1          C  0.06446723  0.88471842  0.07079063     0.42800
N2          N  0.05366675  0.94822223  0.03905517     0.01700
C3          C  0.41700477  0.10325363  0.03763367    -0.06200
H4          H  0.39547157  0.90275945  0.02242004     0.07200
C5          C  0.46021704  0.91061954  0.41894932    -0.06500
Co6        Co  0.49445543  0.00611703  0.05877977     0.74200
N7          N  0.43741587  0.94998421  0.03246504    -0.25700
Co8        Co  0.43907791  0.00725554  0.49665828     0.74100
C9          C  0.43024109  0.88642930  0.42929096     0.42900
N10         N  0.03686846  0.94836551  0.44412628     0.01300
N11         N  0.44149301  0.94978477  0.46107429     0.01400
N12         N  0.45359740  0.10104943  0.07786276    -0.46500
H13         H  0.01982143  0.90091764  0.10181182     0.07200
N14         N  0.45858250  0.94938643  0.05606421     0.01700
N15         N  0.44215221  0.06455653  0.46078077     0.01500
C16         C  0.43155580  0.12674255  0.42781095     0.43100
N17         N  0.05777295  0.94854199  0.46794353    -0.25100
C18         C  0.03479243  0.10183205  0.08114325    -0.06100
N19         N  0.07503798  0.91081622  0.04470005    -0.46300
N20         N  0.42079868  0.10177590  0.45432488    -0.46500
C21         C  0.06455816  0.12678594  0.07092894     0.42800
N22         N  0.45916418  0.06400075  0.05621829     0.01700
N23         N  0.05823913  0.06261695  0.46808216    -0.25200
N24         N  0.02996859  0.94849726  0.06009714    -0.25700
N25         N  0.03739036  0.06320892  0.44421691     0.01300
H26         H  0.09989162  0.10965168  0.47908463     0.07200
H27         H  0.47644580  0.10894833  0.39745328     0.07300
N28         N  0.43807907  0.06432720  0.03254037    -0.25700
N29         N  0.46526188  0.94947827  0.44007528    -0.25300
N30         N  0.05416058  0.06293488  0.03925552     0.01700
C31         C  0.42652530  0.88627100  0.06698944     0.43100
C32         C  0.07901410  0.90982837  0.46329922    -0.06600
N33         N  0.46595349  0.06350691  0.43983948    -0.25300
H34         H  0.47513651  0.90159476  0.39844156     0.07300
N35         N  0.45283299  0.91201053  0.07742883    -0.46500
H36         H  0.09951632  0.90145296  0.47837951     0.07200
C37         C  0.06954102  0.12668402  0.43409428     0.42900
C38         C  0.03471049  0.90951792  0.08121001    -0.06100
Co39       Co  0.05660642  0.00557443  0.00363816     0.73800
N40         N  0.04288055  0.91121577  0.42263340    -0.46300
C41         C  0.42749445  0.12745524  0.06754172     0.43200
N42         N  0.07543858  0.10058486  0.04496384    -0.46300
Co43       Co  0.00143015  0.00610737  0.44138577     0.73900
C44         C  0.46138177  0.10147647  0.41809171    -0.06600
C45         C  0.41610685  0.91125513  0.03729861    -0.06100
N46         N  0.03033766  0.06276189  0.06014241    -0.25700
N47         N  0.41983858  0.91275104  0.45539212    -0.46400
H48         H  0.39636654  0.11218750  0.02286093     0.07200
C49         C  0.07952819  0.10138944  0.46379295    -0.06600
Cl50       Cl  0.99787304  0.00626744  0.00010904    -0.49600
C51         C  0.06901380  0.88523027  0.43335647     0.43000
H52         H  0.01951845  0.11058596  0.10143119     0.07200
N53         N  0.04340906  0.10092834  0.42309821    -0.46300
C54         C  0.31378674  0.62700906  0.17800723     0.42800
N55         N  0.30324447  0.56425300  0.21052744     0.01700
C56         C  0.16661361  0.40914418  0.21237136    -0.06200
H57         H  0.14533474  0.60937293  0.22865117     0.07200
C58         C  0.20967882  0.60211132  0.33075131    -0.06500
Co59       Co  0.24390425  0.50636910  0.19111292     0.74200
N60         N  0.18701846  0.56247225  0.21765593    -0.25700
Co61       Co  0.18863910  0.50531212  0.25315957     0.74100
C62         C  0.17986027  0.62650501  0.32017823     0.42900
N63         N  0.28641571  0.56425165  0.30578081     0.01300
N64         N  0.19098197  0.56276024  0.28869556     0.01400
N65         N  0.20324996  0.41136419  0.17217482    -0.46500
H66         H  0.26881009  0.60982054  0.14762054     0.07200
N67         N  0.20802763  0.56344451  0.19394744     0.01700
N68         N  0.19160217  0.44807740  0.28870117     0.01500
C69         C  0.18065565  0.38503645  0.32078257     0.43100
N70         N  0.30734355  0.56390721  0.28196235    -0.25100
C71         C  0.28440349  0.41083463  0.16851055    -0.06100
N72         N  0.32460153  0.60157606  0.20430712    -0.46300
N73         N  0.17022894  0.41066244  0.29445089    -0.46500
C74         C  0.31430450  0.38610824  0.17856388     0.42800
N75         N  0.20866820  0.44860420  0.19370871     0.01700
N76         N  0.30775063  0.44982140  0.28213769    -0.25200
N77         N  0.27939250  0.56361625  0.18966071    -0.25700
N78         N  0.28672703  0.44954445  0.30587827     0.01300
H79         H  0.34984078  0.40296574  0.27220073     0.07200
H80         H  0.22510434  0.40193335  0.35195838     0.07300
N81         N  0.18757664  0.44828342  0.21735410    -0.25700
N82         N  0.21468093  0.56307148  0.30975777    -0.25300
N83         N  0.30362568  0.44940412  0.21060915     0.01700
C84         C  0.17596109  0.62700624  0.18393094     0.43100
C85         C  0.32881573  0.60227967  0.28668285    -0.06600
N86         N  0.21518355  0.44879138  0.30989543    -0.25300
H87         H  0.22459073  0.61127109  0.35124592     0.07300
N88         N  0.20217646  0.60146498  0.17298549    -0.46500
H89         H  0.34939887  0.61033767  0.27164629     0.07200
C90         C  0.31908310  0.38688184  0.31701615     0.42900
C91         C  0.28393215  0.60194403  0.16815696    -0.06100
Co92       Co  0.30616370  0.50684149  0.24625463     0.73800
N93         N  0.29265759  0.60127448  0.32732299    -0.46300
C94         C  0.17723397  0.38482921  0.18256181     0.43200
N95         N  0.32505746  0.41210207  0.20467547    -0.46300
Co96       Co  0.25080159  0.50645578  0.30852904     0.73900
C97         C  0.21032036  0.41015767  0.33122333    -0.06600
C98         C  0.16575254  0.60124820  0.21340517    -0.06100
N99         N  0.27979625  0.44961192  0.18970763    -0.25700
N100        N  0.16944735  0.60004808  0.29414107    -0.46400
H101        H  0.14602385  0.40006856  0.22718109     0.07200
C102        C  0.32920196  0.41138201  0.28708645    -0.06600
Cl103      Cl  0.24738816  0.50624068  0.24977689    -0.49600
C104        C  0.31897841  0.62692964  0.31665474     0.43000
H105        H  0.26923267  0.40229746  0.14810624     0.07200
N106        N  0.29274992  0.41259505  0.32745725    -0.46300
C107        C  0.11734029  0.22303885  0.09981078     0.30100
C108        C  0.14524517  0.25402941  0.10085669    -0.36200
C109        C  0.14803372  0.28777758  0.12737466     0.16100
C110        C  0.12498607  0.29069847  0.15115236     0.21900
C111        C  0.09711328  0.26004601  0.14999850    -0.34300
C112        C  0.09431608  0.22649994  0.12356309     0.16000
O113        O  0.10991401  0.18789517  0.07770906    -0.26300
C114        C  0.08177654  0.16897706  0.08756025     0.05800
C115        C  0.07091341  0.19165806  0.11584271    -0.31200
O116        O  0.13241095  0.32463734  0.17379560    -0.23100
C117        C  0.16054129  0.34385263  0.16442914    -0.03000
C118        C  0.17151154  0.32250088  0.13571680    -0.17500
H119        H  0.16352507  0.25178023  0.08245230     0.20500
H120        H  0.07892594  0.26204310  0.16851871     0.18900
H121        H  0.04919816  0.18307093  0.12911864     0.18800
H122        H  0.19342645  0.33148466  0.12288299     0.14700
C123        C  0.14981568  0.29075627  0.37343147     0.30100
C124        C  0.14883014  0.26016177  0.40135483    -0.36200
C125        C  0.12246147  0.22633359  0.40427853     0.16100
C126        C  0.09865777  0.22264062  0.38131639     0.21900
C127        C  0.09957244  0.25345247  0.35338514    -0.34300
C128        C  0.12597991  0.28742247  0.35046872     0.16000
O129        O  0.17229226  0.32501910  0.36587062    -0.26300
C130        C  0.16274461  0.34396064  0.33773162     0.05800
C131        C  0.13408880  0.32211156  0.32691909    -0.31200
O132        O  0.07656046  0.18753174  0.38881538    -0.23100
C133        C  0.08640552  0.16874763  0.41694116    -0.03000
C134        C  0.11474979  0.19151937  0.42774914    -0.17500
H135        H  0.16738847  0.26246046  0.41949400     0.20500
H136        H  0.08110069  0.25095522  0.33517603     0.18900
H137        H  0.12112223  0.33076539  0.30504285     0.18800
H138        H  0.12801185  0.18308060  0.44947547     0.14700
C139        C  0.09497894  0.78946944  0.12285936     0.30100
C140        C  0.09548353  0.75762452  0.15025030    -0.36200
C141        C  0.12244166  0.72526933  0.15370193     0.16100
C142        C  0.14723404  0.72403913  0.13170746     0.21900
C143        C  0.14680807  0.75614640  0.10431642    -0.34300
C144        C  0.11980159  0.78865351  0.10087562     0.16000
O145        O  0.07211988  0.82281034  0.11499513    -0.26300
C146        C  0.08240294  0.84364970  0.08763367     0.05800
C147        C  0.11191424  0.82397912  0.07762750    -0.31200
O148        O  0.16970134  0.68975588  0.13948923    -0.23100
C149        C  0.15909470  0.66909488  0.16684279    -0.03000
C150        C  0.12990469  0.68981207  0.17686031    -0.17500
H151        H  0.07615401  0.75794764  0.16761844     0.20500
H152        H  0.16605470  0.75562193  0.08686600     0.18900
H153        H  0.12559801  0.83453190  0.05651172     0.18800
H154        H  0.11591108  0.67954006  0.19782311     0.14700
C155        C  0.37508400  0.22175229  0.09870054     0.30100
C156        C  0.34716704  0.25234090  0.09972623    -0.36200
C157        C  0.34446191  0.28659655  0.12585175     0.16100
C158        C  0.36761067  0.29073329  0.14944018     0.21900
C159        C  0.39558453  0.25989238  0.14849147    -0.34300
C160        C  0.39828000  0.22543244  0.12229070     0.16000
O161        O  0.38244484  0.18727708  0.07632524    -0.26300
C162        C  0.41069662  0.16846441  0.08565196     0.05800
C163        C  0.42178377  0.19061160  0.11411293    -0.31200
O164        O  0.36011511  0.32602402  0.17143690    -0.23100
C165        C  0.33180368  0.34439789  0.16170562    -0.03000
C166        C  0.32092536  0.32126304  0.13354515    -0.17500
H167        H  0.32884664  0.24970604  0.08135922     0.20500
H168        H  0.41394908  0.26266728  0.16678989     0.18900
H169        H  0.44384361  0.18219325  0.12684786     0.18800
H170        H  0.29901638  0.32920009  0.12044931     0.14700
C171        C  0.34885356  0.72161702  0.37010774     0.30100
C172        C  0.34952195  0.75333249  0.39769874    -0.36200
C173        C  0.37594237  0.78736304  0.40050722     0.16100
C174        C  0.40006269  0.78979784  0.37780602     0.21900
C175        C  0.39939867  0.75815848  0.35030806    -0.34300
C176        C  0.37298194  0.72440273  0.34744717     0.16000
O177        O  0.32643511  0.68710788  0.36239508    -0.26300
C178        C  0.33639704  0.66785318  0.33440602     0.05800
C179        C  0.36518633  0.68960829  0.32399111    -0.31200
O180        O  0.42237670  0.82453096  0.38506186    -0.23100
C181        C  0.41245698  0.84471060  0.41275102    -0.03000
C182        C  0.38370236  0.82319076  0.42356611    -0.17500
H183        H  0.33072807  0.75176287  0.41561428     0.20500
H184        H  0.41811048  0.75992922  0.33230596     0.18900
H185        H  0.37851253  0.68093030  0.30234090     0.18800
H186        H  0.37044456  0.83279013  0.44511936     0.14700
C187        C  0.37899781  0.22306728  0.39845214     0.30100
C188        C  0.35190986  0.25591797  0.39830140    -0.35200
C189        C  0.34874581  0.28914570  0.37160329     0.16100
C190        C  0.37069622  0.28994779  0.34676435     0.21900
C191        C  0.39775519  0.25718923  0.34692776    -0.34300
C192        C  0.40093578  0.22409255  0.37361485     0.16000
O193        O  0.38676246  0.18882471  0.42095142    -0.26300
C194        C  0.41407016  0.16790947  0.41036741     0.05800
C195        C  0.42400519  0.18833446  0.38105706    -0.31200
O196        O  0.36309946  0.32411419  0.32424324    -0.23100
C197        C  0.33592591  0.34545321  0.33476522    -0.03000
C198        C  0.32582633  0.32531719  0.36410541    -0.17500
H199        H  0.33455324  0.25562836  0.41763357     0.20500
H200        H  0.41514006  0.25754113  0.32761877     0.18900
H201        H  0.44506398  0.17815189  0.36717493     0.18800
H202        H  0.30478239  0.33597368  0.37789044     0.14700
C203        C  0.14955812  0.72249098  0.37186132     0.30100
C204        C  0.14849531  0.75287835  0.39983865    -0.36200
C205        C  0.12236083  0.78712813  0.40258596     0.16100
C206        C  0.09886328  0.79157377  0.37936783     0.21900
C207        C  0.09992073  0.76109009  0.35127181    -0.34300
C208        C  0.12606499  0.72649253  0.34858798     0.16000
O209        O  0.17164302  0.68739219  0.36472156    -0.26300
C210        C  0.16220680  0.66845794  0.33655643     0.05800
C211        C  0.13400469  0.69123310  0.32525873    -0.31200
O212        O  0.07667196  0.82642700  0.38706513    -0.23100
C213        C  0.08618054  0.84419652  0.41557729    -0.03000
C214        C  0.11439947  0.82112339  0.42638327    -0.17500
H215        H  0.16670524  0.74980376  0.41828345     0.20500
H216        H  0.08160967  0.76393550  0.33292409     0.18900
H217        H  0.12117121  0.68269043  0.30328593     0.18800
H218        H  0.12730579  0.82855424  0.44846554     0.14700
C219        C  0.36671882  0.72268780  0.14860840     0.30100
C220        C  0.39402725  0.75508248  0.14826563    -0.36200
C221        C  0.39722243  0.78818533  0.12150580     0.16100
C222        C  0.37511483  0.78923005  0.09680202     0.21900
C223        C  0.34786996  0.75693464  0.09716156    -0.34300
C224        C  0.34463751  0.72404147  0.12390140     0.16000
O225        O  0.35885376  0.68857840  0.17114868    -0.26300
C226        C  0.33134853  0.66814973  0.16068806     0.05800
C227        C  0.32137105  0.68874720  0.13146570    -0.31200
O228        O  0.38264289  0.82339419  0.07427711    -0.23100
C229        C  0.40992084  0.84453204  0.08464909    -0.03000
C230        C  0.42019679  0.82422081  0.11388985    -0.17500
H231        H  0.41148678  0.75459667  0.16750261     0.20500
H232        H  0.33034675  0.75755042  0.07797548     0.18900
H233        H  0.30019438  0.67887178  0.11766887     0.18800
H234        H  0.44130378  0.83483499  0.12759151     0.14700
C235        C  0.06446722  0.88471832  0.57079060     0.42800
N236        N  0.05366683  0.94822212  0.53905508     0.01700
C237        C  0.41700483  0.10325354  0.53763364    -0.06200
H238        H  0.39547175  0.90275933  0.52241995     0.07200
C239        C  0.46021708  0.91061955  0.91894929    -0.06500
Co240      Co  0.49445542  0.00611701  0.55877977     0.74200
N241        N  0.43741592  0.94998419  0.53246501    -0.25700
Co242      Co  0.43907788  0.00725555  0.99665832     0.74100
C243        C  0.43024115  0.88642928  0.92929094     0.42900
N244        N  0.03686841  0.94836555  0.94412631     0.01300
N245        N  0.44149301  0.94978491  0.96107423     0.01400
N246        N  0.45359733  0.10104950  0.57786275    -0.46500
H247        H  0.01982133  0.90091759  0.60181179     0.07200
N248        N  0.45858247  0.94938648  0.55606418     0.01700
N249        N  0.44215210  0.06455642  0.96078083     0.01500
C250        C  0.43155564  0.12674253  0.92781113     0.43100
N251        N  0.05777280  0.94854209  0.96794345    -0.25100
C252        C  0.03479248  0.10183200  0.58114304    -0.06100
N253        N  0.07503795  0.91081626  0.54470005    -0.46300
N254        N  0.42079858  0.10177583  0.95432494    -0.46500
C255        C  0.06455808  0.12678605  0.57092902     0.42800
N256        N  0.45916416  0.06400066  0.55621836     0.01700
N257        N  0.05823908  0.06261693  0.96808217    -0.25200
N258        N  0.02996861  0.94849732  0.56009721    -0.25700
N259        N  0.03739040  0.06320878  0.94421694     0.01300
H260        H  0.09989150  0.10965166  0.97908460     0.07200
H261        H  0.47644435  0.10894806  0.89745570     0.07300
N262        N  0.43807917  0.06432707  0.53254040    -0.25700
N263        N  0.46526185  0.94947828  0.94007531    -0.25300
N264        N  0.05416062  0.06293496  0.53925552     0.01700
C265        C  0.42652535  0.88627094  0.56698945     0.43100
C266        C  0.07901420  0.90982828  0.96329918    -0.06600
N267        N  0.46595338  0.06350683  0.93983973    -0.25300
H268        H  0.47513646  0.90159490  0.89844155     0.07300
N269        N  0.45283298  0.91201055  0.57742889    -0.46500
H270        H  0.09951504  0.90145341  0.97837820     0.07200
C271        C  0.06954108  0.12668386  0.93409423     0.42900
C272        C  0.03471049  0.90951791  0.58121000    -0.06100
Co273      Co  0.05660645  0.00557443  0.50363813     0.73800
N274        N  0.04288054  0.91121580  0.92263333    -0.46300
C275        C  0.42749433  0.12745505  0.56754181     0.43200
N276        N  0.07543853  0.10058492  0.54496385    -0.46300
Co277      Co  0.00143012  0.00610733  0.94138580     0.73900
C278        C  0.46138190  0.10147673  0.91809157    -0.06600
C279        C  0.41610690  0.91125513  0.53729861    -0.06100
N280        N  0.03033759  0.06276201  0.56014249    -0.25700
N281        N  0.41983861  0.91275095  0.95539209    -0.46400
H282        H  0.39636678  0.11218671  0.52286132     0.07200
C283        C  0.07952820  0.10138942  0.96379297    -0.06600
Cl284      Cl  0.99787309  0.00626744  0.50010904    -0.49600
C285        C  0.06901367  0.88523025  0.93335634     0.43000
H286        H  0.01951723  0.11058659  0.60143221     0.07200
N287        N  0.04340909  0.10092827  0.92309816    -0.46300
C288        C  0.31378687  0.62700901  0.67800736     0.42800
N289        N  0.30324453  0.56425288  0.71052748     0.01700
C290        C  0.16661359  0.40914418  0.71237135    -0.06200
H291        H  0.14533669  0.60937292  0.72864976     0.07200
C292        C  0.20967882  0.60211128  0.83075125    -0.06500
Co293      Co  0.24390429  0.50636914  0.69111292     0.74200
N294        N  0.18701862  0.56247218  0.71765579    -0.25700
Co295      Co  0.18863911  0.50531210  0.75315954     0.74100
C296        C  0.17986032  0.62650504  0.82017820     0.42900
N297        N  0.28641580  0.56425172  0.80578072     0.01300
N298        N  0.19098193  0.56276021  0.78869555     0.01400
N299        N  0.20324993  0.41136430  0.67217480    -0.46500
H300        H  0.26881159  0.60981997  0.64762296     0.07200
N301        N  0.20802763  0.56344446  0.69394745     0.01700
N302        N  0.19160214  0.44807739  0.78870115     0.01500
C303        C  0.18065569  0.38503642  0.82078256     0.43100
N304        N  0.30734373  0.56390735  0.78196225    -0.25100
C305        C  0.28440338  0.41083444  0.66851041    -0.06100
N306        N  0.32460167  0.60157604  0.70430714    -0.46300
N307        N  0.17022895  0.41066239  0.79445091    -0.46500
C308        C  0.31430456  0.38610821  0.67856401     0.42800
N309        N  0.20866820  0.44860418  0.69370865     0.01700
N310        N  0.30775070  0.44982138  0.78213764    -0.25200
N311        N  0.27939265  0.56361613  0.68966097    -0.25700
N312        N  0.28672706  0.44954450  0.80587826     0.01300
H313        H  0.34984122  0.40296579  0.77220051     0.07200
H314        H  0.22510440  0.40193344  0.85195829     0.07300
N315        N  0.18757654  0.44828343  0.71735408    -0.25700
N316        N  0.21468096  0.56307157  0.80975773    -0.25300
N317        N  0.30362571  0.44940411  0.71060919     0.01700
C318        C  0.17596122  0.62700631  0.68393081     0.43100
C319        C  0.32881564  0.60227958  0.78668294    -0.06600
N320        N  0.21518355  0.44879140  0.80989538    -0.25300
H321        H  0.22459101  0.61127119  0.85124610     0.07300
N322        N  0.20217648  0.60146513  0.67298544    -0.46500
H323        H  0.34940057  0.61033800  0.77164536     0.07200
C324        C  0.31908308  0.38688192  0.81701619     0.42900
C325        C  0.28393198  0.60194418  0.66815672    -0.06100
Co326      Co  0.30616374  0.50684144  0.74625462     0.73800
N327        N  0.29265763  0.60127459  0.82732290    -0.46300
C328        C  0.17723388  0.38482930  0.68256180     0.43200
N329        N  0.32505743  0.41210201  0.70467554    -0.46300
Co330      Co  0.25080162  0.50645585  0.80852897     0.73900
C331        C  0.21032042  0.41015770  0.83122329    -0.06600
C332        C  0.16575231  0.60124838  0.71340519    -0.06100
N333        N  0.27979631  0.44961204  0.68970771    -0.25700
N334        N  0.16944736  0.60004814  0.79414105    -0.46400
H335        H  0.14602350  0.40006831  0.72718143     0.07200
C336        C  0.32920187  0.41138204  0.78708649    -0.06600
Cl337      Cl  0.24738814  0.50624068  0.74977686    -0.49600
C338        C  0.31897850  0.62692971  0.81665461     0.43000
H339        H  0.26923394  0.40229800  0.64810765     0.07200
N340        N  0.29274986  0.41259512  0.82745725    -0.46300
C341        C  0.11734046  0.22303882  0.59981062     0.30100
C342        C  0.14524509  0.25402936  0.60085677    -0.36200
C343        C  0.14803391  0.28777757  0.62737449     0.16100
C344        C  0.12498606  0.29069850  0.65115227     0.21900
C345        C  0.09711331  0.26004598  0.64999841    -0.34300
C346        C  0.09431612  0.22649992  0.62356305     0.16000
O347        O  0.10991400  0.18789514  0.57770903    -0.26300
C348        C  0.08177653  0.16897711  0.58756024     0.05800
C349        C  0.07091345  0.19165810  0.61584269    -0.31200
O350        O  0.13241094  0.32463741  0.67379550    -0.23100
C351        C  0.16054133  0.34385272  0.66442911    -0.03000
C352        C  0.17151144  0.32250096  0.63571692    -0.17500
H353        H  0.16352646  0.25178009  0.58245070     0.20500
H354        H  0.07892578  0.26204304  0.66851872     0.18900
H355        H  0.04919807  0.18307097  0.62911868     0.18800
H356        H  0.19342728  0.33148549  0.62288272     0.14700
C357        C  0.14981582  0.29075624  0.87343158     0.30100
C358        C  0.14883003  0.26016180  0.90135484    -0.36200
C359        C  0.12246137  0.22633385  0.90427832     0.16100
C360        C  0.09865771  0.22264056  0.88131623     0.21900
C361        C  0.09957250  0.25345249  0.85338516    -0.34300
C362        C  0.12597991  0.28742242  0.85046893     0.16000
O363        O  0.17229237  0.32501913  0.86587071    -0.26300
C364        C  0.16274477  0.34396063  0.83773183     0.05800
C365        C  0.13408869  0.32211164  0.82691890    -0.31200
O366        O  0.07656037  0.18753165  0.88881522    -0.23100
C367        C  0.08640532  0.16874759  0.91694084    -0.03000
C368        C  0.11474983  0.19151932  0.92774938    -0.17500
H369        H  0.16738908  0.26246039  0.91949467     0.20500
H370        H  0.08110028  0.25095489  0.83517550     0.18900
H371        H  0.12112347  0.33076463  0.80504525     0.18800
H372        H  0.12800980  0.18308197  0.94947243     0.14700
C373        C  0.09497871  0.78946931  0.62285955     0.30100
C374        C  0.09548350  0.75762444  0.65025027    -0.36200
C375        C  0.12244145  0.72526921  0.65370229     0.16100
C376        C  0.14723369  0.72403905  0.63170767     0.21900
C377        C  0.14680818  0.75614637  0.60431627    -0.34300
C378        C  0.11980123  0.78865338  0.60087590     0.16000
O379        O  0.07211971  0.82281029  0.61499517    -0.26300
C380        C  0.08240270  0.84364950  0.58763378     0.05800
C381        C  0.11191427  0.82397918  0.57762739    -0.31200
O382        O  0.16970119  0.68975596  0.63948925    -0.23100
C383        C  0.15909451  0.66909494  0.66684296    -0.03000
C384        C  0.12990478  0.68981216  0.67686019    -0.17500
H385        H  0.07615254  0.75794736  0.66761956     0.20500
H386        H  0.16605212  0.75562191  0.58686798     0.18900
H387        H  0.12559664  0.83453100  0.55651339     0.18800
H388        H  0.11590982  0.67953929  0.69782554     0.14700
C389        C  0.37508400  0.22175240  0.59870048     0.30100
C390        C  0.34716696  0.25234091  0.59972612    -0.36200
C391        C  0.34446168  0.28659671  0.62585162     0.16100
C392        C  0.36761050  0.29073339  0.64944008     0.21900
C393        C  0.39558448  0.25989248  0.64849146    -0.34300
C394        C  0.39827976  0.22543256  0.62229062     0.16000
O395        O  0.38244479  0.18727707  0.57632516    -0.26300
C396        C  0.41069640  0.16846440  0.58565184     0.05800
C397        C  0.42178402  0.19061153  0.61411306    -0.31200
O398        O  0.36011500  0.32602400  0.67143680    -0.23100
C399        C  0.33180337  0.34439778  0.66170549    -0.03000
C400        C  0.32092554  0.32126297  0.63354521    -0.17500
H401        H  0.32884689  0.24970610  0.58135943     0.20500
H402        H  0.41394862  0.26266741  0.66678956     0.18900
H403        H  0.44384099  0.18219406  0.62684655     0.18800
H404        H  0.29901358  0.32920073  0.62044778     0.14700
C405        C  0.34885360  0.72161703  0.87010759     0.30100
C406        C  0.34952175  0.75333261  0.89769894    -0.36200
C407        C  0.37594254  0.78736316  0.90050714     0.16100
C408        C  0.40006253  0.78979796  0.87780609     0.21900
C409        C  0.39939883  0.75815853  0.85030784    -0.34300
C410        C  0.37298181  0.72440257  0.84744718     0.16000
O411        O  0.32643505  0.68710783  0.86239509    -0.26300
C412        C  0.33639711  0.66785311  0.83440597     0.05800
C413        C  0.36518636  0.68960834  0.82399109    -0.31200
O414        O  0.42237670  0.82453093  0.88506180    -0.23100
C415        C  0.41245701  0.84471057  0.91275098    -0.03000
C416        C  0.38370238  0.82319087  0.92356614    -0.17500
H417        H  0.33073000  0.75176303  0.91561280     0.20500
H418        H  0.41810869  0.75992923  0.83230746     0.18900
H419        H  0.37851330  0.68092987  0.80234021     0.18800
H420        H  0.37044475  0.83279017  0.94511923     0.14700
C421        C  0.37899786  0.22306722  0.89845216     0.30100
C422        C  0.35190989  0.25591792  0.89830142    -0.35200
C423        C  0.34874599  0.28914554  0.87160326     0.16100
C424        C  0.37069622  0.28994776  0.84676429     0.21900
C425        C  0.39775515  0.25718923  0.84692773    -0.34300
C426        C  0.40093580  0.22409251  0.87361478     0.16000
O427        O  0.38676246  0.18882470  0.92095142    -0.26300
C428        C  0.41407015  0.16790934  0.91036735     0.05800
C429        C  0.42400510  0.18833454  0.88105717    -0.31200
O430        O  0.36309942  0.32411414  0.82424317    -0.23100
C431        C  0.33592601  0.34545322  0.83476512    -0.03000
C432        C  0.32582626  0.32531727  0.86410547    -0.17500
H433        H  0.33455336  0.25562833  0.91763360     0.20500
H434        H  0.41514013  0.25754121  0.82761857     0.18900
H435        H  0.44506451  0.17815104  0.86717446     0.18800
H436        H  0.30478448  0.33597324  0.87788947     0.14700
C437        C  0.14955818  0.72249106  0.87186133     0.30100
C438        C  0.14849535  0.75287841  0.89983868    -0.36200
C439        C  0.12236079  0.78712813  0.90258591     0.16100
C440        C  0.09886331  0.79157382  0.87936777     0.21900
C441        C  0.09992078  0.76109012  0.85127176    -0.34300
C442        C  0.12606509  0.72649264  0.84858810     0.16000
O443        O  0.17164313  0.68739222  0.86472158    -0.26300
C444        C  0.16220696  0.66845797  0.83655654     0.05800
C445        C  0.13400470  0.69123304  0.82525863    -0.31200
O446        O  0.07667194  0.82642704  0.88706501    -0.23100
C447        C  0.08618043  0.84419649  0.91557716    -0.03000
C448        C  0.11439944  0.82112354  0.92638338    -0.17500
H449        H  0.16670514  0.74980381  0.91828338     0.20500
H450        H  0.08160977  0.76393546  0.83292408     0.18900
H451        H  0.12117240  0.68269142  0.80328743     0.18800
H452        H  0.12730495  0.82855420  0.94846471     0.14700
C453        C  0.36671896  0.72268796  0.64860856     0.30100
C454        C  0.39402706  0.75508263  0.64826548    -0.36200
C455        C  0.39722254  0.78818535  0.62150595     0.16100
C456        C  0.37511480  0.78923011  0.59680197     0.21900
C457        C  0.34787000  0.75693475  0.59716160    -0.34300
C458        C  0.34463753  0.72404157  0.62390135     0.16000
O459        O  0.35885377  0.68857842  0.67114864    -0.26300
C460        C  0.33134850  0.66814985  0.66068805     0.05800
C461        C  0.32137101  0.68874713  0.63146558    -0.31200
O462        O  0.38264290  0.82339423  0.57427708    -0.23100
C463        C  0.40992089  0.84453199  0.58464911    -0.03000
C464        C  0.42019671  0.82422075  0.61388984    -0.17500
H465        H  0.41148865  0.75459642  0.66750441     0.20500
H466        H  0.33034659  0.75755036  0.57797504     0.18900
H467        H  0.30019462  0.67887167  0.61766886     0.18800
H468        H  0.44130431  0.83483506  0.62759185     0.14700
C469        C  0.56446739  0.88471851  0.07079051     0.42800
N470        N  0.55366676  0.94822224  0.03905512     0.01700
C471        C  0.91700476  0.10325361  0.03763366    -0.06200
H472        H  0.89546981  0.90275890  0.02241889     0.07200
C473        C  0.96021707  0.91061957  0.41894927    -0.06500
Co474      Co  0.99445538  0.00611702  0.05877975     0.74200
N475        N  0.93741566  0.94998406  0.03246495    -0.25700
Co476      Co  0.93907797  0.00725554  0.49665829     0.74100
C477        C  0.93024113  0.88642929  0.42929099     0.42900
N478        N  0.53686849  0.94836553  0.44412630     0.01300
N479        N  0.94149308  0.94978475  0.46107428     0.01400
N480        N  0.95359739  0.10104940  0.07786275    -0.46500
H481        H  0.51982293  0.90091829  0.10181046     0.07200
N482        N  0.95858242  0.94938639  0.05606420     0.01700
N483        N  0.94215221  0.06455653  0.46078077     0.01500
C484        C  0.93155577  0.12674253  0.42781097     0.43100
N485        N  0.55777287  0.94854198  0.46794350    -0.25100
C486        C  0.53479242  0.10183212  0.08114330    -0.06100
N487        N  0.57503807  0.91081619  0.04469997    -0.46300
N488        N  0.92079866  0.10177588  0.45432488    -0.46500
C489        C  0.56455818  0.12678589  0.07092890     0.42800
N490        N  0.95916416  0.06400072  0.05621829     0.01700
N491        N  0.55823914  0.06261694  0.46808216    -0.25200
N492        N  0.52996872  0.94849732  0.06009704    -0.25700
N493        N  0.53739030  0.06320896  0.44421689     0.01300
H494        H  0.59989168  0.10965184  0.47908479     0.07200
H495        H  0.97644579  0.10894835  0.39745329     0.07300
N496        N  0.93807906  0.06432717  0.03254036    -0.25700
N497        N  0.96526186  0.94947828  0.44007528    -0.25300
N498        N  0.55416048  0.06293483  0.03925553     0.01700
C499        C  0.92652518  0.88627093  0.06698934     0.43100
C500        C  0.57901421  0.90982833  0.46329924    -0.06600
N501        N  0.96595348  0.06350693  0.43983948    -0.25300
H502        H  0.97513651  0.90159485  0.39844155     0.07300
N503        N  0.95283293  0.91201054  0.07742878    -0.46500
H504        H  0.59951582  0.90145302  0.47837912     0.07200
C505        C  0.56954104  0.12668404  0.43409430     0.42900
C506        C  0.53471045  0.90951774  0.08121021    -0.06100
Co507      Co  0.55660640  0.00557442  0.00363815     0.73800
N508        N  0.54288056  0.91121569  0.42263339    -0.46300
C509        C  0.92749445  0.12745525  0.06754171     0.43200
N510        N  0.57543864  0.10058487  0.04496385    -0.46300
Co511      Co  0.50143012  0.00610733  0.44138577     0.73900
C512        C  0.96138175  0.10147648  0.41809172    -0.06600
C513        C  0.91610695  0.91125519  0.03729869    -0.06100
N514        N  0.53033774  0.06276187  0.06014238    -0.25700
N515        N  0.91983855  0.91275098  0.45539213    -0.46400
H516        H  0.89636652  0.11218750  0.02286091     0.07200
C517        C  0.57952816  0.10138946  0.46379295    -0.06600
Cl518      Cl  0.49787303  0.00626744  0.00010904    -0.49600
C519        C  0.56901378  0.88523024  0.43335647     0.43000
H520        H  0.51951874  0.11058599  0.10143082     0.07200
N521        N  0.54340910  0.10092829  0.42309821    -0.46300
C522        C  0.81378672  0.62700906  0.17800723     0.42800
N523        N  0.80324446  0.56425300  0.21052745     0.01700
C524        C  0.66661359  0.40914418  0.21237135    -0.06200
H525        H  0.64533446  0.60937315  0.22865139     0.07200
C526        C  0.70967880  0.60211132  0.33075131    -0.06500
Co527      Co  0.74390425  0.50636906  0.19111293     0.74200
N528        N  0.68701842  0.56247227  0.21765594    -0.25700
Co529      Co  0.68863908  0.50531212  0.25315957     0.74100
C530        C  0.67986024  0.62650501  0.32017823     0.42900
N531        N  0.78641581  0.56425171  0.30578077     0.01300
N532        N  0.69098195  0.56276024  0.28869556     0.01400
N533        N  0.70324997  0.41136422  0.17217482    -0.46500
H534        H  0.76881007  0.60982053  0.14762054     0.07200
N535        N  0.70802761  0.56344453  0.19394741     0.01700
N536        N  0.69160214  0.44807741  0.28870117     0.01500
C537        C  0.68065563  0.38503645  0.32078257     0.43100
N538        N  0.80734373  0.56390732  0.28196227    -0.25100
C539        C  0.78440351  0.41083462  0.16851060    -0.06100
N540        N  0.82460151  0.60157607  0.20430712    -0.46300
N541        N  0.67022892  0.41066244  0.29445089    -0.46500
C542        C  0.81430452  0.38610828  0.17856385     0.42800
N543        N  0.70866819  0.44860420  0.19370873     0.01700
N544        N  0.80775061  0.44982138  0.28213769    -0.25200
N545        N  0.77939248  0.56361624  0.18966071    -0.25700
N546        N  0.78672701  0.44954442  0.30587827     0.01300
H547        H  0.84984073  0.40296576  0.27220074     0.07200
H548        H  0.72510432  0.40193334  0.35195837     0.07300
N549        N  0.68757661  0.44828342  0.21735410    -0.25700
N550        N  0.71468093  0.56307150  0.30975776    -0.25300
N551        N  0.80362572  0.44940413  0.21060917     0.01700
C552        C  0.67596103  0.62700628  0.18393095     0.43100
C553        C  0.82881563  0.60227949  0.28668297    -0.06600
N554        N  0.71518353  0.44879139  0.30989543    -0.25300
H555        H  0.72459071  0.61127110  0.35124591     0.07300
N556        N  0.70217645  0.60146503  0.17298553    -0.46500
H557        H  0.84940076  0.61033805  0.27164520     0.07200
C558        C  0.81908309  0.38688180  0.31701615     0.42900
C559        C  0.78393213  0.60194403  0.16815696    -0.06100
Co560      Co  0.80616371  0.50684149  0.24625463     0.73800
N561        N  0.79265770  0.60127459  0.32732289    -0.46300
C562        C  0.67723395  0.38482921  0.18256181     0.43200
N563        N  0.82505741  0.41210214  0.20467545    -0.46300
Co564      Co  0.75080160  0.50645581  0.30852902     0.73900
C565        C  0.71032034  0.41015768  0.33122333    -0.06600
C566        C  0.66575261  0.60124824  0.21340514    -0.06100
N567        N  0.77979621  0.44961191  0.18970763    -0.25700
N568        N  0.66944733  0.60004808  0.29414107    -0.46400
H569        H  0.64602380  0.40006853  0.22718110     0.07200
C570        C  0.82920194  0.41138199  0.28708644    -0.06600
Cl571      Cl  0.74738815  0.50624068  0.24977689    -0.49600
C572        C  0.81897862  0.62692965  0.31665461     0.43000
H573        H  0.76923265  0.40229736  0.14810624     0.07200
N574        N  0.79274993  0.41259500  0.32745725    -0.46300
C575        C  0.61734029  0.22303888  0.09981077     0.30100
C576        C  0.64524518  0.25402942  0.10085669    -0.36200
C577        C  0.64803392  0.28777768  0.12737460     0.16100
C578        C  0.62498613  0.29069853  0.15115233     0.21900
C579        C  0.59711332  0.26004607  0.14999846    -0.34300
C580        C  0.59431606  0.22649995  0.12356309     0.16000
O581        O  0.60991398  0.18789512  0.07770910    -0.26300
C582        C  0.58177647  0.16897707  0.08756027     0.05800
C583        C  0.57091346  0.19165803  0.11584269    -0.31200
O584        O  0.63241101  0.32463736  0.17379553    -0.23100
C585        C  0.66054148  0.34385264  0.16442903    -0.03000
C586        C  0.67151131  0.32250076  0.13571694    -0.17500
H587        H  0.66352519  0.25178023  0.08245223     0.20500
H588        H  0.57892595  0.26204315  0.16851871     0.18900
H589        H  0.54919776  0.18307073  0.12911884     0.18800
H590        H  0.69342896  0.33148540  0.12288174     0.14700
C591        C  0.64981568  0.29075629  0.37343148     0.30100
C592        C  0.64883016  0.26016183  0.40135485    -0.36200
C593        C  0.62246149  0.22633362  0.40427855     0.16100
C594        C  0.59865781  0.22264056  0.38131639     0.21900
C595        C  0.59957244  0.25345245  0.35338513    -0.34300
C596        C  0.62597991  0.28742250  0.35046874     0.16000
O597        O  0.67229224  0.32501912  0.36587061    -0.26300
C598        C  0.66274459  0.34396065  0.33773162     0.05800
C599        C  0.63408878  0.32211157  0.32691909    -0.31200
O600        O  0.57656046  0.18753170  0.38881537    -0.23100
C601        C  0.58640557  0.16874760  0.41694115    -0.03000
C602        C  0.61474982  0.19151944  0.42774917    -0.17500
H603        H  0.66738849  0.26246055  0.41949400     0.20500
H604        H  0.58110084  0.25095521  0.33517613     0.18900
H605        H  0.62112221  0.33076539  0.30504285     0.18800
H606        H  0.62801187  0.18308075  0.44947554     0.14700
C607        C  0.59497892  0.78946943  0.12285937     0.30100
C608        C  0.59548352  0.75762449  0.15025029    -0.36200
C609        C  0.62244165  0.72526930  0.15370193     0.16100
C610        C  0.64723404  0.72403910  0.13170746     0.21900
C611        C  0.64680807  0.75614636  0.10431643    -0.34300
C612        C  0.61980158  0.78865348  0.10087564     0.16000
O613        O  0.57211988  0.82281040  0.11499513    -0.26300
C614        C  0.58240291  0.84364969  0.08763367     0.05800
C615        C  0.61191429  0.82397916  0.07762748    -0.31200
O616        O  0.66970133  0.68975588  0.13948923    -0.23100
C617        C  0.65909471  0.66909491  0.16684278    -0.03000
C618        C  0.62990468  0.68981205  0.17686032    -0.17500
H619        H  0.57615394  0.75794764  0.16761848     0.20500
H620        H  0.66605470  0.75562189  0.08686602     0.18900
H621        H  0.62559785  0.83453169  0.05651204     0.18800
H622        H  0.61591119  0.67954008  0.19782304     0.14700
C623        C  0.87508399  0.22175233  0.09870050     0.30100
C624        C  0.84716703  0.25234088  0.09972619    -0.36200
C625        C  0.84446172  0.28659663  0.12585168     0.16100
C626        C  0.86761060  0.29073327  0.14944015     0.21900
C627        C  0.89558454  0.25989237  0.14849147    -0.34300
C628        C  0.89827993  0.22543250  0.12229064     0.16000
O629        O  0.88244477  0.18727710  0.07632516    -0.26300
C630        C  0.91069654  0.16846454  0.08565182     0.05800
C631        C  0.92178393  0.19061152  0.11411298    -0.31200
O632        O  0.86011506  0.32602397  0.17143684    -0.23100
C633        C  0.83180352  0.34439791  0.16170548    -0.03000
C634        C  0.82092547  0.32126300  0.13354521    -0.17500
H635        H  0.82884675  0.24970600  0.08135923     0.20500
H636        H  0.91394898  0.26266727  0.16678976     0.18900
H637        H  0.94384252  0.18219385  0.12684698     0.18800
H638        H  0.79901425  0.32920080  0.12044820     0.14700
C639        C  0.84885356  0.72161700  0.37010770     0.30100
C640        C  0.84952190  0.75333250  0.39769876    -0.36200
C641        C  0.87594237  0.78736304  0.40050728     0.16100
C642        C  0.90006248  0.78979783  0.37780616     0.21900
C643        C  0.89939880  0.75815840  0.35030795    -0.34300
C644        C  0.87298183  0.72440257  0.34744722     0.16000
O645        O  0.82643515  0.68710790  0.36239500    -0.26300
C646        C  0.83639718  0.66785316  0.33440591     0.05800
C647        C  0.86518632  0.68960841  0.32399126    -0.31200
O648        O  0.92237668  0.82453087  0.38506186    -0.23100
C649        C  0.91245697  0.84471059  0.41275103    -0.03000
C650        C  0.88370237  0.82319081  0.42356613    -0.17500
H651        H  0.83072813  0.75176296  0.41561415     0.20500
H652        H  0.91810864  0.75992904  0.33230752     0.18900
H653        H  0.87851361  0.68092963  0.30233975     0.18800
H654        H  0.87044459  0.83279023  0.44511929     0.14700
C655        C  0.87899786  0.22306725  0.39845209     0.30100
C656        C  0.85190993  0.25591798  0.39830134    -0.35200
C657        C  0.84874610  0.28914562  0.37160321     0.16100
C658        C  0.87069642  0.28994774  0.34676419     0.21900
C659        C  0.89775515  0.25718921  0.34692791    -0.34300
C660        C  0.90093592  0.22409256  0.37361476     0.16000
O661        O  0.88676244  0.18882470  0.42095139    -0.26300
C662        C  0.91407014  0.16790943  0.41036741     0.05800
C663        C  0.92400520  0.18833441  0.38105710    -0.31200
O664        O  0.86309956  0.32411424  0.32424316    -0.23100
C665        C  0.83592614  0.34545317  0.33476507    -0.03000
C666        C  0.82582618  0.32531727  0.36410553    -0.17500
H667        H  0.83455341  0.25562832  0.41763334     0.20500
H668        H  0.91514153  0.25754131  0.32761755     0.18900
H669        H  0.94506414  0.17815175  0.36717495     0.18800
H670        H  0.80478483  0.33597263  0.37788911     0.14700
C671        C  0.64955812  0.72249096  0.37186133     0.30100
C672        C  0.64849529  0.75287834  0.39983864    -0.36200
C673        C  0.62236085  0.78712821  0.40258599     0.16100
C674        C  0.59886321  0.79157381  0.37936783     0.21900
C675        C  0.59992076  0.76109015  0.35127186    -0.34300
C676        C  0.62606495  0.72649256  0.34858797     0.16000
O677        O  0.67164300  0.68739217  0.36472155    -0.26300
C678        C  0.66220677  0.66845792  0.33655642     0.05800
C679        C  0.63400467  0.69123309  0.32525874    -0.31200
O680        O  0.57667194  0.82642708  0.38706513    -0.23100
C681        C  0.58618054  0.84419651  0.41557732    -0.03000
C682        C  0.61439941  0.82112339  0.42638326    -0.17500
H683        H  0.66670529  0.74980362  0.41828354     0.20500
H684        H  0.58160931  0.76393559  0.33292380     0.18900
H685        H  0.62117118  0.68269043  0.30328592     0.18800
H686        H  0.62730601  0.82855470  0.44846604     0.14700
C687        C  0.86671880  0.72268781  0.14860840     0.30100
C688        C  0.89402723  0.75508248  0.14826564    -0.36200
C689        C  0.89722240  0.78818531  0.12150580     0.16100
C690        C  0.87511480  0.78923003  0.09680202     0.21900
C691        C  0.84786995  0.75693466  0.09716157    -0.34300
C692        C  0.84463749  0.72404148  0.12390139     0.16000
O693        O  0.85885373  0.68857840  0.17114867    -0.26300
C694        C  0.83134850  0.66814973  0.16068806     0.05800
C695        C  0.82137103  0.68874721  0.13146569    -0.31200
O696        O  0.88264285  0.82339410  0.07427708    -0.23100
C697        C  0.90992077  0.84453202  0.08464908    -0.03000
C698        C  0.92019683  0.82422077  0.11388987    -0.17500
H699        H  0.91148674  0.75459665  0.16750261     0.20500
H700        H  0.83034673  0.75755047  0.07797544     0.18900
H701        H  0.80019436  0.67887178  0.11766887     0.18800
H702        H  0.94130341  0.83483476  0.12759132     0.14700
C703        C  0.56446720  0.88471839  0.57079058     0.42800
N704        N  0.55366676  0.94822219  0.53905511     0.01700
C705        C  0.91700462  0.10325370  0.53763349    -0.06200
H706        H  0.89547175  0.90275942  0.52241996     0.07200
C707        C  0.96021707  0.91061956  0.91894929    -0.06500
Co708      Co  0.99445546  0.00611701  0.55877980     0.74200
N709        N  0.93741596  0.94998420  0.53246502    -0.25700
Co710      Co  0.93907788  0.00725555  0.99665831     0.74100
C711        C  0.93024112  0.88642931  0.92929094     0.42900
N712        N  0.53686841  0.94836551  0.94412630     0.01300
N713        N  0.94149301  0.94978492  0.96107423     0.01400
N714        N  0.95359741  0.10104949  0.57786285    -0.46500
H715        H  0.51982135  0.90091760  0.60181198     0.07200
N716        N  0.95858252  0.94938644  0.55606418     0.01700
N717        N  0.94215217  0.06455645  0.96078082     0.01500
C718        C  0.93155567  0.12674256  0.92781116     0.43100
N719        N  0.55777288  0.94854202  0.96794352    -0.25100
C720        C  0.53479238  0.10183215  0.58114322    -0.06100
N721        N  0.57503794  0.91081633  0.54470001    -0.46300
N722        N  0.92079856  0.10177589  0.95432495    -0.46500
C723        C  0.56455819  0.12678595  0.57092890     0.42800
N724        N  0.95916426  0.06400060  0.55621837     0.01700
N725        N  0.55823906  0.06261693  0.96808217    -0.25200
N726        N  0.52996856  0.94849726  0.56009716    -0.25700
N727        N  0.53739039  0.06320881  0.94421694     0.01300
H728        H  0.59989146  0.10965164  0.97908460     0.07200
H729        H  0.97644434  0.10894798  0.89745569     0.07300
N730        N  0.93807945  0.06432695  0.53254051    -0.25700
N731        N  0.96526186  0.94947827  0.94007531    -0.25300
N732        N  0.55416056  0.06293489  0.53925550     0.01700
C733        C  0.92652534  0.88627098  0.56698945     0.43100
C734        C  0.57901407  0.90982843  0.96329916    -0.06600
N735        N  0.96595337  0.06350684  0.93983973    -0.25300
H736        H  0.97513645  0.90159489  0.89844156     0.07300
N737        N  0.95283299  0.91201054  0.57742889    -0.46500
H738        H  0.59951619  0.90145302  0.97837938     0.07200
C739        C  0.56954108  0.12668386  0.93409425     0.42900
C740        C  0.53471052  0.90951794  0.58120998    -0.06100
Co741      Co  0.55660642  0.00557441  0.50363814     0.73800
N742        N  0.54288054  0.91121580  0.92263336    -0.46300
C743        C  0.92749452  0.12745500  0.56754192     0.43200
N744        N  0.57543855  0.10058487  0.54496378    -0.46300
Co745      Co  0.50143011  0.00610735  0.94138581     0.73900
C746        C  0.96138194  0.10147671  0.91809152    -0.06600
C747        C  0.91610691  0.91125519  0.53729862    -0.06100
N748        N  0.53033763  0.06276193  0.56014238    -0.25700
N749        N  0.91983859  0.91275098  0.95539209    -0.46400
H750        H  0.89636920  0.11218607  0.52286279     0.07200
C751        C  0.57952820  0.10138941  0.96379300    -0.06600
Cl752      Cl  0.49787305  0.00626744  0.50010903    -0.49600
C753        C  0.56901375  0.88523025  0.93335643     0.43000
H754        H  0.51951858  0.11058595  0.60143091     0.07200
N755        N  0.54340911  0.10092831  0.92309817    -0.46300
C756        C  0.81378688  0.62700902  0.67800738     0.42800
N757        N  0.80324451  0.56425288  0.71052748     0.01700
C758        C  0.66661357  0.40914417  0.71237135    -0.06200
H759        H  0.64533436  0.60937349  0.72865139     0.07200
C760        C  0.70967880  0.60211128  0.83075125    -0.06500
Co761      Co  0.74390428  0.50636913  0.69111292     0.74200
N762        N  0.68701835  0.56247232  0.71765592    -0.25700
Co763      Co  0.68863908  0.50531211  0.75315954     0.74100
C764        C  0.67986030  0.62650504  0.82017820     0.42900
N765        N  0.78641572  0.56425170  0.80578078     0.01300
N766        N  0.69098191  0.56276021  0.78869556     0.01400
N767        N  0.70324991  0.41136428  0.67217481    -0.46500
H768        H  0.76881162  0.60982004  0.64762294     0.07200
N769        N  0.70802762  0.56344457  0.69394743     0.01700
N770        N  0.69160211  0.44807740  0.78870114     0.01500
C771        C  0.68065567  0.38503644  0.82078256     0.43100
N772        N  0.80734358  0.56390723  0.78196233    -0.25100
C773        C  0.78440346  0.41083461  0.66851053    -0.06100
N774        N  0.82460167  0.60157604  0.70430716    -0.46300
N775        N  0.67022892  0.41066241  0.79445091    -0.46500
C776        C  0.81430446  0.38610821  0.67856390     0.42800
N777        N  0.70866819  0.44860420  0.69370864     0.01700
N778        N  0.80775066  0.44982139  0.78213768    -0.25200
N779        N  0.77939264  0.56361615  0.68966095    -0.25700
N780        N  0.78672704  0.44954451  0.80587824     0.01300
H781        H  0.84984082  0.40296566  0.77220075     0.07200
H782        H  0.72510439  0.40193344  0.85195830     0.07300
N783        N  0.68757652  0.44828345  0.71735407    -0.25700
N784        N  0.71468094  0.56307157  0.80975773    -0.25300
N785        N  0.80362571  0.44940405  0.71060917     0.01700
C786        C  0.67596107  0.62700632  0.68393092     0.43100
C787        C  0.82881575  0.60227970  0.78668284    -0.06600
N788        N  0.71518353  0.44879140  0.80989537    -0.25300
H789        H  0.72459100  0.61127121  0.85124611     0.07300
N790        N  0.70217644  0.60146504  0.67298550    -0.46500
H791        H  0.84939891  0.61033772  0.77164628     0.07200
C792        C  0.81908307  0.38688189  0.81701618     0.42900
C793        C  0.78393200  0.60194423  0.66815672    -0.06100
Co794      Co  0.80616373  0.50684144  0.74625463     0.73800
N795        N  0.79265761  0.60127451  0.82732297    -0.46300
C796        C  0.67723387  0.38482925  0.68256179     0.43200
N797        N  0.82505742  0.41210205  0.70467549    -0.46300
Co798      Co  0.75080158  0.50645585  0.80852899     0.73900
C799        C  0.71032040  0.41015770  0.83122329    -0.06600
C800        C  0.66575254  0.60124826  0.71340508    -0.06100
N801        N  0.77979625  0.44961193  0.68970759    -0.25700
N802        N  0.66944734  0.60004812  0.79414105    -0.46400
H803        H  0.64602359  0.40006833  0.72718136     0.07200
C804        C  0.82920196  0.41138200  0.78708647    -0.06600
Cl805      Cl  0.74738814  0.50624068  0.74977687    -0.49600
C806        C  0.81897843  0.62692966  0.81665473     0.43000
H807        H  0.76923262  0.40229746  0.64810618     0.07200
N808        N  0.79274990  0.41259513  0.82745725    -0.46300
C809        C  0.61734045  0.22303882  0.59981062     0.30100
C810        C  0.64524507  0.25402936  0.60085675    -0.36200
C811        C  0.64803386  0.28777753  0.62737449     0.16100
C812        C  0.62498604  0.29069839  0.65115228     0.21900
C813        C  0.59711329  0.26004592  0.64999841    -0.34300
C814        C  0.59431613  0.22649985  0.62356305     0.16000
O815        O  0.60991401  0.18789516  0.57770899    -0.26300
C816        C  0.58177654  0.16897709  0.58756020     0.05800
C817        C  0.57091347  0.19165805  0.61584265    -0.31200
O818        O  0.63241089  0.32463728  0.67379555    -0.23100
C819        C  0.66054122  0.34385269  0.66442912    -0.03000
C820        C  0.67151146  0.32250090  0.63571689    -0.17500
H821        H  0.66352641  0.25178010  0.58245071     0.20500
H822        H  0.57892601  0.26204247  0.66851878     0.18900
H823        H  0.54919801  0.18307081  0.62911869     0.18800
H824        H  0.69342685  0.33148528  0.62288291     0.14700
C825        C  0.64981574  0.29075622  0.87343158     0.30100
C826        C  0.64883007  0.26016175  0.90135485    -0.36200
C827        C  0.62246142  0.22633374  0.90427841     0.16100
C828        C  0.59865775  0.22264057  0.88131629     0.21900
C829        C  0.59957249  0.25345249  0.85338518    -0.34300
C830        C  0.62597992  0.28742237  0.85046891     0.16000
O831        O  0.67229233  0.32501905  0.86587070    -0.26300
C832        C  0.66274475  0.34396062  0.83773183     0.05800
C833        C  0.63408868  0.32211165  0.82691889    -0.31200
O834        O  0.57656042  0.18753169  0.88881529    -0.23100
C835        C  0.58640545  0.16874754  0.91694095    -0.03000
C836        C  0.61474980  0.19151939  0.92774924    -0.17500
H837        H  0.66738886  0.26246035  0.91949443     0.20500
H838        H  0.58110032  0.25095498  0.83517562     0.18900
H839        H  0.62112348  0.33076469  0.80504535     0.18800
H840        H  0.62801088  0.18308123  0.94947366     0.14700
C841        C  0.59497876  0.78946942  0.62285953     0.30100
C842        C  0.59548353  0.75762455  0.65025023    -0.36200
C843        C  0.62244136  0.72526924  0.65370230     0.16100
C844        C  0.64723370  0.72403907  0.63170768     0.21900
C845        C  0.64680814  0.75614635  0.60431631    -0.34300
C846        C  0.61980132  0.78865346  0.60087577     0.16000
O847        O  0.57211982  0.82281034  0.61499511    -0.26300
C848        C  0.58240290  0.84364973  0.58763368     0.05800
C849        C  0.61191422  0.82397910  0.57762753    -0.31200
O850        O  0.66970117  0.68975594  0.63948926    -0.23100
C851        C  0.65909450  0.66909491  0.66684296    -0.03000
C852        C  0.62990477  0.68981224  0.67686018    -0.17500
H853        H  0.57615216  0.75794755  0.66761984     0.20500
H854        H  0.66605235  0.75562180  0.58686779     0.18900
H855        H  0.62559791  0.83453183  0.55651191     0.18800
H856        H  0.61590969  0.67953927  0.69782563     0.14700
C857        C  0.87508397  0.22175237  0.59870047     0.30100
C858        C  0.84716694  0.25234090  0.59972614    -0.36200
C859        C  0.84446171  0.28659667  0.62585165     0.16100
C860        C  0.86761056  0.29073339  0.64944008     0.21900
C861        C  0.89558449  0.25989244  0.64849142    -0.34300
C862        C  0.89827975  0.22543252  0.62229061     0.16000
O863        O  0.88244478  0.18727704  0.57632515    -0.26300
C864        C  0.91069639  0.16846439  0.58565183     0.05800
C865        C  0.92178400  0.19061151  0.61411306    -0.31200
O866        O  0.86011503  0.32602404  0.67143679    -0.23100
C867        C  0.83180344  0.34439787  0.66170549    -0.03000
C868        C  0.82092556  0.32126295  0.63354525    -0.17500
H869        H  0.82884684  0.24970614  0.58135945     0.20500
H870        H  0.91394881  0.26266736  0.66678961     0.18900
H871        H  0.94384094  0.18219408  0.62684654     0.18800
H872        H  0.79901386  0.32920063  0.62044802     0.14700
C873        C  0.84885370  0.72161704  0.87010759     0.30100
C874        C  0.84952187  0.75333259  0.89769885    -0.36200
C875        C  0.87594254  0.78736314  0.90050709     0.16100
C876        C  0.90006273  0.78979790  0.87780599     0.21900
C877        C  0.89939871  0.75815848  0.85030803    -0.34300
C878        C  0.87298200  0.72440262  0.84744707     0.16000
O879        O  0.82643514  0.68710795  0.86239506    -0.26300
C880        C  0.83639716  0.66785317  0.83440594     0.05800
C881        C  0.86518643  0.68960830  0.82399106    -0.31200
O882        O  0.92237674  0.82453100  0.88506182    -0.23100
C883        C  0.91245701  0.84471061  0.91275098    -0.03000
C884        C  0.88370239  0.82319079  0.92356609    -0.17500
H885        H  0.83072972  0.75176310  0.91561299     0.20500
H886        H  0.91811048  0.75992924  0.83230603     0.18900
H887        H  0.87851330  0.68092986  0.80234022     0.18800
H888        H  0.87044460  0.83279013  0.94511927     0.14700
C889        C  0.87899784  0.22306721  0.89845216     0.30100
C890        C  0.85190986  0.25591792  0.89830143    -0.35200
C891        C  0.84874596  0.28914553  0.87160327     0.16100
C892        C  0.87069619  0.28994775  0.84676430     0.21900
C893        C  0.89775512  0.25718923  0.84692773    -0.34300
C894        C  0.90093578  0.22409251  0.87361478     0.16000
O895        O  0.88676246  0.18882469  0.92095142    -0.26300
C896        C  0.91407014  0.16790934  0.91036735     0.05800
C897        C  0.92400508  0.18833453  0.88105716    -0.31200
O898        O  0.86309941  0.32411411  0.82424318    -0.23100
C899        C  0.83592600  0.34545318  0.83476511    -0.03000
C900        C  0.82582623  0.32531726  0.86410548    -0.17500
H901        H  0.83455333  0.25562833  0.91763361     0.20500
H902        H  0.91514010  0.25754121  0.82761857     0.18900
H903        H  0.94506446  0.17815109  0.86717446     0.18800
H904        H  0.80478446  0.33597323  0.87788947     0.14700
C905        C  0.64955815  0.72249103  0.87186131     0.30100
C906        C  0.64849533  0.75287840  0.89983867    -0.36200
C907        C  0.62236076  0.78712813  0.90258590     0.16100
C908        C  0.59886328  0.79157381  0.87936777     0.21900
C909        C  0.59992076  0.76109012  0.85127177    -0.34300
C910        C  0.62606504  0.72649259  0.84858801     0.16000
O911        O  0.67164307  0.68739222  0.86472154    -0.26300
C912        C  0.66220685  0.66845797  0.83655644     0.05800
C913        C  0.63400468  0.69123314  0.82525870    -0.31200
O914        O  0.57667192  0.82642704  0.88706501    -0.23100
C915        C  0.58618041  0.84419649  0.91557716    -0.03000
C916        C  0.61439942  0.82112353  0.92638338    -0.17500
H917        H  0.66670511  0.74980381  0.91828337     0.20500
H918        H  0.58160972  0.76393548  0.83292405     0.18900
H919        H  0.62117149  0.68269105  0.80328636     0.18800
H920        H  0.62730492  0.82855420  0.94846471     0.14700
C921        C  0.86671896  0.72268793  0.64860854     0.30100
C922        C  0.89402713  0.75508261  0.64826548    -0.36200
C923        C  0.89722253  0.78818539  0.62150593     0.16100
C924        C  0.87511480  0.78923014  0.59680198     0.21900
C925        C  0.84786999  0.75693476  0.59716160    -0.34300
C926        C  0.84463759  0.72404155  0.62390136     0.16000
O927        O  0.85885380  0.68857833  0.67114862    -0.26300
C928        C  0.83134855  0.66814979  0.66068806     0.05800
C929        C  0.82137104  0.68874716  0.63146563    -0.31200
O930        O  0.88264287  0.82339424  0.57427707    -0.23100
C931        C  0.90992087  0.84453202  0.58464910    -0.03000
C932        C  0.92019671  0.82422080  0.61388983    -0.17500
H933        H  0.91148847  0.75459648  0.66750410     0.20500
H934        H  0.83034664  0.75755041  0.57797520     0.18900
H935        H  0.80019477  0.67887191  0.61766909     0.18800
H936        H  0.94130428  0.83483509  0.62759181     0.14700
loop_ 
_geom_bond_atom_site_label_1 
_geom_bond_atom_site_label_2 
_geom_bond_distance 
_geom_bond_site_symmetry_2 
_ccdc_geom_bond_type 
C1           N19   1.348       .  A
C1           C38   1.457       .  S
C1          C146   1.464       .  S
N2           N19   1.324       .  A
N2           N24   1.320       .  A
N2          Co39   2.079   1_565  S
C3           N28   1.340       .  A
C3           C41   1.457       .  S
C3           H48   1.081       .  S
H4           C45   1.081       .  S
C5           N29   1.340       .  A
C5            C9   1.456       .  S
C5           H34   1.081       .  S
Co6          N14   2.079   1_545  S
Co6          N22   2.083       .  S
Co6         N492   2.083   1_545  S
Co6         N514   2.076       .  S
Co6        Cl518   2.449       .  S
N7           C45   1.341       .  A
N7           N14   1.321       .  A
N7         Co242   2.087   1_564  S
Co8          N11   2.085   1_545  S
Co8          N15   2.092       .  S
Co8         N241   2.087   1_545  S
Co8         N262   2.084       .  S
Co8        Cl752   2.452       .  S
C9           N47   1.349       .  A
C9          C181   1.466       .  S
N10          N17   1.320       .  A
N10          N40   1.326       .  A
N10         Co43   2.085   1_565  S
N11          N29   1.321       .  A
N11          N47   1.325       .  A
N12          C41   1.348       .  A
N12          N22   1.325       .  A
H13          C38   1.081       .  S
N14          N35   1.324       .  A
N15          N33   1.321       .  A
N15          N20   1.327       .  A
C16          N20   1.351       .  A
C16          C44   1.456       .  S
C16         C194   1.468       .  S
N17          C32   1.338       .  A
N17        Co273   2.078   1_565  S
C18          N46   1.337       .  A
C18          C21   1.456       .  S
C18          H52   1.081       .  S
C21          N42   1.349       .  A
C21         C114   1.465       .  S
N22          N28   1.321       .  A
N23          C49   1.338       .  A
N23          N25   1.320       .  A
N23        Co273   2.075       .  S
N24          C38   1.340       .  A
N24        Co474   2.083   1_465  S
N25          N53   1.326       .  A
N25         Co43   2.089       .  S
H26          C49   1.081       .  S
H27          C44   1.081       .  S
N28        Co242   2.084   1_554  S
N29        Co511   2.084   1_565  S
N30          N42   1.326       .  A
N30          N46   1.320       .  A
N30         Co39   2.084       .  S
C31          N35   1.348       .  A
C31          C45   1.457       .  S
C31         C229   1.465       .  S
C32          C51   1.456       .  S
C32          H36   1.081       .  S
N33          C44   1.338       .  A
N33        Co511   2.078       .  S
C37          N53   1.350       .  A
C37          C49   1.456       .  S
C37         C133   1.466       .  S
Co39        N251   2.078   1_544  S
Co39        N257   2.075   1_554  S
Co39        Cl50   2.450   1_455  S
N40          C51   1.349       .  A
C41         C162   1.465       .  S
Co43        N497   2.084   1_445  S
Co43        N501   2.078   1_455  S
Co43       Cl284   2.451   1_455  S
N46        Co474   2.076   1_455  S
Cl50       Co474   2.449       .  S
Cl50       Co710   2.452   1_554  S
Cl50       Co277   2.451   1_654  S
C51         C213   1.466       .  S
C54          N72   1.350       .  A
C54          C91   1.456       .  S
C54         C226   1.466       .  S
N55          N72   1.326       .  A
N55          N77   1.320       .  A
N55         Co92   2.089       .  S
C56          N81   1.340       .  A
C56          C94   1.456       .  S
C56         H101   1.081       .  S
H57          C98   1.081       .  S
C58          N82   1.340       .  A
C58          C62   1.456       .  S
C58          H87   1.081       .  S
Co59         N77   2.075       .  S
Co59         N67   2.087       .  S
Co59         N99   2.079       .  S
Co59         N75   2.079       .  S
Co59       Cl103   2.449       .  S
N60          C98   1.337       .  A
N60          N67   1.320       .  A
N60         Co61   2.076       .  S
Co61         N64   2.083       .  S
Co61         N81   2.081       .  S
Co61         N68   2.081       .  S
Co61       Cl103   2.450       .  S
C62         N100   1.348       .  A
C62         C210   1.465       .  S
N63          N70   1.321       .  A
N63          N93   1.327       .  A
N63         Co96   2.091       .  S
N64          N82   1.321       .  A
N64         N100   1.325       .  A
N65          C94   1.347       .  A
N65          N75   1.324       .  A
H66          C91   1.081       .  S
N67          N88   1.326       .  A
N68          N86   1.321       .  A
N68          N73   1.325       .  A
C69          N73   1.348       .  A
C69          C97   1.457       .  S
C69         C130   1.465       .  S
N70          C85   1.338       .  A
N70         Co92   2.079       .  S
C71          N99   1.338       .  A
C71          C74   1.456       .  S
C71         H105   1.081       .  S
C74          N95   1.350       .  A
C74         C165   1.466       .  S
N75          N81   1.320       .  A
N76         C102   1.341       .  A
N76          N78   1.321       .  A
N76         Co92   2.084       .  S
N77          C91   1.338       .  A
N78         N106   1.325       .  A
N78         Co96   2.085       .  S
H79         C102   1.081       .  S
H80          C97   1.081       .  S
N82         Co96   2.083       .  S
N83          N95   1.326       .  A
N83          N99   1.320       .  A
N83         Co92   2.086       .  S
C84          N88   1.350       .  A
C84          C98   1.455       .  S
C84         C149   1.465       .  S
C85         C104   1.456       .  S
C85          H89   1.081       .  S
N86          C97   1.340       .  A
N86         Co96   2.086       .  S
C90         N106   1.349       .  A
C90         C102   1.456       .  S
C90         C197   1.466       .  S
Co92       Cl103   2.451       .  S
N93         C104   1.350       .  A
C94         C117   1.463       .  S
Co96       Cl103   2.452       .  S
C104        C178   1.468       .  S
C107        C112   1.381       .  A
C107        C108   1.404       .  A
C107        O113   1.320       .  A
C108        H119   1.082       .  S
C108        C109   1.404       .  A
C109        C118   1.362       .  A
C109        C110   1.381       .  A
C110        C111   1.399       .  A
C110        O116   1.316       .  A
C111        H120   1.082       .  S
C111        C112   1.398       .  A
C112        C115   1.356       .  A
O113        C114   1.331       .  A
C114        C115   1.388       .  A
C115        H121   1.082       .  S
O116        C117   1.328       .  A
C117        C118   1.391       .  A
C118        H122   1.082       .  S
C123        C128   1.381       .  A
C123        C124   1.400       .  A
C123        O129   1.317       .  A
C124        H135   1.082       .  S
C124        C125   1.400       .  A
C125        C134   1.358       .  A
C125        C126   1.381       .  A
C126        C127   1.404       .  A
C126        O132   1.319       .  A
C127        H136   1.082       .  S
C127        C128   1.403       .  A
C128        C131   1.362       .  A
O129        C130   1.329       .  A
C130        C131   1.391       .  A
C131        H137   1.082       .  S
O132        C133   1.330       .  A
C133        C134   1.389       .  A
C134        H138   1.082       .  S
C139        C144   1.381       .  A
C139        C140   1.400       .  A
C139        O145   1.316       .  A
C140        H151   1.082       .  S
C140        C141   1.399       .  A
C141        C150   1.357       .  A
C141        C142   1.381       .  A
C142        C143   1.404       .  A
C142        O148   1.320       .  A
C143        H152   1.082       .  S
C143        C144   1.403       .  A
C144        C147   1.362       .  A
O145        C146   1.328       .  A
C146        C147   1.391       .  A
C147        H153   1.082       .  S
O148        C149   1.331       .  A
C149        C150   1.389       .  A
C150        H154   1.082       .  S
C155        C160   1.381       .  A
C155        C156   1.400       .  A
C155        O161   1.316       .  A
C156        H167   1.083       .  S
C156        C157   1.399       .  A
C157        C166   1.357       .  A
C157        C158   1.381       .  A
C158        C159   1.405       .  A
C158        O164   1.320       .  A
C159        H168   1.082       .  S
C159        C160   1.405       .  A
C160        C163   1.363       .  A
O161        C162   1.328       .  A
C162        C163   1.392       .  A
C163        H169   1.082       .  S
O164        C165   1.331       .  A
C165        C166   1.389       .  A
C166        H170   1.082       .  S
C171        C176   1.380       .  A
C171        C172   1.405       .  A
C171        O177   1.321       .  A
C172        H183   1.082       .  S
C172        C173   1.404       .  A
C173        C182   1.363       .  A
C173        C174   1.381       .  A
C174        C175   1.400       .  A
C174        O180   1.317       .  A
C175        H184   1.082       .  S
C175        C176   1.400       .  A
C176        C179   1.358       .  A
O177        C178   1.331       .  A
C178        C179   1.389       .  A
C179        H185   1.082       .  S
O180        C181   1.329       .  A
C181        C182   1.391       .  A
C182        H186   1.082       .  S
C187        C192   1.381       .  A
C187        C188   1.404       .  A
C187        O193   1.320       .  A
C188        H199   1.082       .  S
C188        C189   1.403       .  A
C189        C198   1.362       .  A
C189        C190   1.381       .  A
C190        C191   1.402       .  A
C190        O196   1.318       .  A
C191        H200   1.082       .  S
C191        C192   1.401       .  A
C192        C195   1.359       .  A
O193        C194   1.331       .  A
C194        C195   1.390       .  A
C195        H201   1.082       .  S
O196        C197   1.329       .  A
C197        C198   1.391       .  A
C198        H202   1.082       .  S
C203        C208   1.381       .  A
C203        C204   1.399       .  A
C203        O209   1.316       .  A
C204        H215   1.082       .  S
C204        C205   1.399       .  A
C205        C214   1.357       .  A
C205        C206   1.381       .  A
C206        C207   1.405       .  A
C206        O212   1.320       .  A
C207        H216   1.082       .  S
C207        C208   1.404       .  A
C208        C211   1.363       .  A
O209        C210   1.328       .  A
C210        C211   1.392       .  A
C211        H217   1.082       .  S
O212        C213   1.331       .  A
C213        C214   1.389       .  A
C214        H218   1.082       .  S
C219        C224   1.381       .  A
C219        C220   1.404       .  A
C219        O225   1.320       .  A
C220        H231   1.082       .  S
C220        C221   1.404       .  A
C221        C230   1.362       .  A
C221        C222   1.381       .  A
C222        C223   1.400       .  A
C222        O228   1.317       .  A
C223        H232   1.082       .  S
C223        C224   1.400       .  A
C224        C227   1.358       .  A
O225        C226   1.331       .  A
C226        C227   1.389       .  A
C227        H233   1.082       .  S
O228        C229   1.329       .  A
C229        C230   1.391       .  A
C230        H234   1.082       .  S
C235        N253   1.348       .  A
C235        C272   1.457       .  S
C235        C380   1.464       .  S
N236        N253   1.324       .  A
N236        N258   1.320       .  A
N236       Co273   2.079   1_565  S
C237        N262   1.340       .  A
C237        C275   1.457       .  S
C237        H282   1.081       .  S
H238        C279   1.081       .  S
C239        N263   1.340       .  A
C239        C243   1.456       .  S
C239        H268   1.081       .  S
Co240       N726   2.083   1_545  S
Co240       N248   2.079   1_545  S
Co240       N748   2.076       .  S
Co240       N256   2.083       .  S
Co240      Cl752   2.449       .  S
N241        C279   1.341       .  A
N241        N248   1.321       .  A
Co242       N245   2.085   1_545  S
Co242       N249   2.092       .  S
Co242      Cl518   2.452   1_556  S
C243        N281   1.349       .  A
C243        C415   1.466       .  S
N244        N251   1.320       .  A
N244        N274   1.326       .  A
N244       Co277   2.085   1_565  S
N245        N263   1.321       .  A
N245        N281   1.325       .  A
N246        C275   1.348       .  A
N246        N256   1.325       .  A
H247        C272   1.081       .  S
N248        N269   1.324       .  A
N249        N267   1.321       .  A
N249        N254   1.327       .  A
C250        N254   1.351       .  A
C250        C278   1.456       .  S
C250        C428   1.468       .  S
N251        C266   1.338       .  A
C252        N280   1.337       .  A
C252        C255   1.456       .  S
C252        H286   1.081       .  S
C255        N276   1.349       .  A
C255        C348   1.465       .  S
N256        N262   1.321       .  A
N257        C283   1.338       .  A
N257        N259   1.320       .  A
N258        C272   1.340       .  A
N258       Co708   2.083   1_465  S
N259        N287   1.326       .  A
N259       Co277   2.089       .  S
H260        C283   1.081       .  S
H261        C278   1.081       .  S
N263       Co745   2.084   1_565  S
N264        N276   1.326       .  A
N264        N280   1.320       .  A
N264       Co273   2.084       .  S
C265        N269   1.348       .  A
C265        C279   1.457       .  S
C265        C463   1.465       .  S
C266        C285   1.456       .  S
C266        H270   1.081       .  S
N267        C278   1.338       .  A
N267       Co745   2.078       .  S
C271        N287   1.350       .  A
C271        C283   1.456       .  S
C271        C367   1.466       .  S
Co273      Cl284   2.450   1_455  S
N274        C285   1.349       .  A
C275        C396   1.465       .  S
Co277       N731   2.084   1_445  S
Co277       N735   2.078   1_455  S
N280       Co708   2.076   1_455  S
Cl284      Co708   2.449       .  S
Cl284      Co476   2.452       .  S
C285        C447   1.466       .  S
C288        N306   1.350       .  A
C288        C325   1.456       .  S
C288        C460   1.466       .  S
N289        N306   1.326       .  A
N289        N311   1.320       .  A
N289       Co326   2.089       .  S
C290        N315   1.340       .  A
C290        C328   1.456       .  S
C290        H335   1.081       .  S
H291        C332   1.081       .  S
C292        N316   1.340       .  A
C292        C296   1.456       .  S
C292        H321   1.081       .  S
Co293       N311   2.075       .  S
Co293       N301   2.087       .  S
Co293       N333   2.079       .  S
Co293       N309   2.079       .  S
Co293      Cl337   2.449       .  S
N294        C332   1.338       .  A
N294        N301   1.320       .  A
N294       Co295   2.076       .  S
Co295       N298   2.083       .  S
Co295       N315   2.081       .  S
Co295       N302   2.081       .  S
Co295      Cl337   2.450       .  S
C296        N334   1.348       .  A
C296        C444   1.465       .  S
N297        N304   1.321       .  A
N297        N327   1.327       .  A
N297       Co330   2.091       .  S
N298        N316   1.321       .  A
N298        N334   1.325       .  A
N299        C328   1.347       .  A
N299        N309   1.324       .  A
H300        C325   1.081       .  S
N301        N322   1.326       .  A
N302        N320   1.321       .  A
N302        N307   1.325       .  A
C303        N307   1.348       .  A
C303        C331   1.457       .  S
C303        C364   1.465       .  S
N304        C319   1.338       .  A
N304       Co326   2.079       .  S
C305        N333   1.338       .  A
C305        C308   1.457       .  S
C305        H339   1.081       .  S
C308        N329   1.350       .  A
C308        C399   1.466       .  S
N309        N315   1.320       .  A
N310        C336   1.341       .  A
N310        N312   1.321       .  A
N310       Co326   2.084       .  S
N311        C325   1.338       .  A
N312        N340   1.325       .  A
N312       Co330   2.085       .  S
H313        C336   1.081       .  S
H314        C331   1.081       .  S
N316       Co330   2.083       .  S
N317        N329   1.326       .  A
N317        N333   1.320       .  A
N317       Co326   2.086       .  S
C318        N322   1.350       .  A
C318        C332   1.455       .  S
C318        C383   1.465       .  S
C319        C338   1.456       .  S
C319        H323   1.081       .  S
N320        C331   1.340       .  A
N320       Co330   2.086       .  S
C324        N340   1.349       .  A
C324        C336   1.456       .  S
C324        C431   1.466       .  S
Co326      Cl337   2.451       .  S
N327        C338   1.350       .  A
C328        C351   1.463       .  S
Co330      Cl337   2.452       .  S
C338        C412   1.468       .  S
C341        C346   1.381       .  A
C341        C342   1.404       .  A
C341        O347   1.320       .  A
C342        H353   1.082       .  S
C342        C343   1.404       .  A
C343        C352   1.362       .  A
C343        C344   1.381       .  A
C344        C345   1.399       .  A
C344        O350   1.316       .  A
C345        H354   1.082       .  S
C345        C346   1.398       .  A
C346        C349   1.356       .  A
O347        C348   1.331       .  A
C348        C349   1.388       .  A
C349        H355   1.082       .  S
O350        C351   1.328       .  A
C351        C352   1.391       .  A
C352        H356   1.082       .  S
C357        C362   1.381       .  A
C357        C358   1.400       .  A
C357        O363   1.317       .  A
C358        H369   1.082       .  S
C358        C359   1.400       .  A
C359        C368   1.358       .  A
C359        C360   1.381       .  A
C360        C361   1.404       .  A
C360        O366   1.319       .  A
C361        H370   1.082       .  S
C361        C362   1.403       .  A
C362        C365   1.362       .  A
O363        C364   1.329       .  A
C364        C365   1.391       .  A
C365        H371   1.082       .  S
O366        C367   1.330       .  A
C367        C368   1.389       .  A
C368        H372   1.082       .  S
C373        C378   1.381       .  A
C373        C374   1.400       .  A
C373        O379   1.316       .  A
C374        H385   1.082       .  S
C374        C375   1.399       .  A
C375        C384   1.357       .  A
C375        C376   1.381       .  A
C376        C377   1.404       .  A
C376        O382   1.320       .  A
C377        H386   1.082       .  S
C377        C378   1.403       .  A
C378        C381   1.362       .  A
O379        C380   1.328       .  A
C380        C381   1.391       .  A
C381        H387   1.082       .  S
O382        C383   1.331       .  A
C383        C384   1.389       .  A
C384        H388   1.082       .  S
C389        C394   1.381       .  A
C389        C390   1.400       .  A
C389        O395   1.316       .  A
C390        H401   1.083       .  S
C390        C391   1.399       .  A
C391        C400   1.357       .  A
C391        C392   1.381       .  A
C392        C393   1.405       .  A
C392        O398   1.320       .  A
C393        H402   1.082       .  S
C393        C394   1.405       .  A
C394        C397   1.363       .  A
O395        C396   1.328       .  A
C396        C397   1.392       .  A
C397        H403   1.082       .  S
O398        C399   1.331       .  A
C399        C400   1.389       .  A
C400        H404   1.082       .  S
C405        C410   1.380       .  A
C405        C406   1.405       .  A
C405        O411   1.321       .  A
C406        H417   1.082       .  S
C406        C407   1.404       .  A
C407        C416   1.363       .  A
C407        C408   1.381       .  A
C408        C409   1.401       .  A
C408        O414   1.317       .  A
C409        H418   1.082       .  S
C409        C410   1.400       .  A
C410        C413   1.358       .  A
O411        C412   1.331       .  A
C412        C413   1.389       .  A
C413        H419   1.082       .  S
O414        C415   1.329       .  A
C415        C416   1.391       .  A
C416        H420   1.082       .  S
C421        C426   1.381       .  A
C421        C422   1.404       .  A
C421        O427   1.320       .  A
C422        H433   1.082       .  S
C422        C423   1.403       .  A
C423        C432   1.362       .  A
C423        C424   1.381       .  A
C424        C425   1.402       .  A
C424        O430   1.318       .  A
C425        H434   1.082       .  S
C425        C426   1.401       .  A
C426        C429   1.359       .  A
O427        C428   1.331       .  A
C428        C429   1.390       .  A
C429        H435   1.082       .  S
O430        C431   1.329       .  A
C431        C432   1.391       .  A
C432        H436   1.082       .  S
C437        C442   1.381       .  A
C437        C438   1.399       .  A
C437        O443   1.316       .  A
C438        H449   1.082       .  S
C438        C439   1.399       .  A
C439        C448   1.357       .  A
C439        C440   1.381       .  A
C440        C441   1.405       .  A
C440        O446   1.320       .  A
C441        H450   1.082       .  S
C441        C442   1.404       .  A
C442        C445   1.363       .  A
O443        C444   1.328       .  A
C444        C445   1.392       .  A
C445        H451   1.082       .  S
O446        C447   1.331       .  A
C447        C448   1.389       .  A
C448        H452   1.082       .  S
C453        C458   1.381       .  A
C453        C454   1.404       .  A
C453        O459   1.320       .  A
C454        H465   1.082       .  S
C454        C455   1.404       .  A
C455        C464   1.362       .  A
C455        C456   1.381       .  A
C456        C457   1.400       .  A
C456        O462   1.317       .  A
C457        H466   1.082       .  S
C457        C458   1.400       .  A
C458        C461   1.358       .  A
O459        C460   1.331       .  A
C460        C461   1.389       .  A
C461        H467   1.082       .  S
O462        C463   1.329       .  A
C463        C464   1.391       .  A
C464        H468   1.082       .  S
C469        N487   1.348       .  A
C469        C506   1.457       .  S
C469        C614   1.464       .  S
N470        N487   1.324       .  A
N470        N492   1.320       .  A
N470       Co507   2.079   1_565  S
C471        N496   1.340       .  A
C471        C509   1.457       .  S
C471        H516   1.081       .  S
H472        C513   1.081       .  S
C473        N497   1.340       .  A
C473        C477   1.456       .  S
C473        H502   1.081       .  S
Co474       N482   2.079   1_545  S
Co474       N490   2.083       .  S
N475        C513   1.341       .  A
N475        N482   1.321       .  A
N475       Co710   2.087   1_564  S
Co476       N709   2.087   1_545  S
Co476       N479   2.085   1_545  S
Co476       N730   2.084       .  S
Co476       N483   2.092       .  S
C477        N515   1.349       .  A
C477        C649   1.466       .  S
N478        N485   1.320       .  A
N478        N508   1.326       .  A
N478       Co511   2.085   1_565  S
N479        N497   1.321       .  A
N479        N515   1.325       .  A
N480        C509   1.348       .  A
N480        N490   1.325       .  A
H481        C506   1.081       .  S
N482        N503   1.324       .  A
N483        N501   1.321       .  A
N483        N488   1.327       .  A
C484        N488   1.351       .  A
C484        C512   1.456       .  S
C484        C662   1.468       .  S
N485        C500   1.338       .  A
N485       Co741   2.078   1_565  S
C486        N514   1.337       .  A
C486        C489   1.456       .  S
C486        H520   1.081       .  S
C489        N510   1.349       .  A
C489        C582   1.465       .  S
N490        N496   1.321       .  A
N491        C517   1.338       .  A
N491        N493   1.320       .  A
N491       Co741   2.075       .  S
N492        C506   1.340       .  A
N493        N521   1.326       .  A
N493       Co511   2.089       .  S
H494        C517   1.081       .  S
H495        C512   1.081       .  S
N496       Co710   2.084   1_554  S
N498        N510   1.326       .  A
N498        N514   1.320       .  A
N498       Co507   2.084       .  S
C499        N503   1.348       .  A
C499        C513   1.457       .  S
C499        C697   1.465       .  S
C500        C519   1.456       .  S
C500        H504   1.081       .  S
N501        C512   1.338       .  A
C505        N521   1.350       .  A
C505        C517   1.456       .  S
C505        C601   1.466       .  S
Co507       N719   2.078   1_544  S
Co507       N725   2.075   1_554  S
Co507      Cl518   2.450       .  S
N508        C519   1.349       .  A
C509        C630   1.465       .  S
Co511      Cl752   2.451       .  S
Cl518      Co745   2.451   1_554  S
C519        C681   1.466       .  S
C522        N540   1.350       .  A
C522        C559   1.456       .  S
C522        C694   1.466       .  S
N523        N540   1.326       .  A
N523        N545   1.320       .  A
N523       Co560   2.089       .  S
C524        N549   1.340       .  A
C524        C562   1.456       .  S
C524        H569   1.081       .  S
H525        C566   1.081       .  S
C526        N550   1.340       .  A
C526        C530   1.456       .  S
C526        H555   1.081       .  S
Co527       N545   2.075       .  S
Co527       N535   2.087       .  S
Co527       N567   2.079       .  S
Co527       N543   2.079       .  S
Co527      Cl571   2.449       .  S
N528        C566   1.337       .  A
N528        N535   1.320       .  A
N528       Co529   2.076       .  S
Co529       N532   2.083       .  S
Co529       N549   2.081       .  S
Co529       N536   2.081       .  S
Co529      Cl571   2.450       .  S
C530        N568   1.348       .  A
C530        C678   1.465       .  S
N531        N538   1.321       .  A
N531        N561   1.327       .  A
N531       Co564   2.091       .  S
N532        N550   1.321       .  A
N532        N568   1.325       .  A
N533        C562   1.347       .  A
N533        N543   1.324       .  A
H534        C559   1.081       .  S
N535        N556   1.326       .  A
N536        N554   1.321       .  A
N536        N541   1.325       .  A
C537        N541   1.348       .  A
C537        C565   1.457       .  S
C537        C598   1.465       .  S
N538        C553   1.338       .  A
N538       Co560   2.079       .  S
C539        N567   1.338       .  A
C539        C542   1.456       .  S
C539        H573   1.081       .  S
C542        N563   1.350       .  A
C542        C633   1.466       .  S
N543        N549   1.320       .  A
N544        C570   1.341       .  A
N544        N546   1.321       .  A
N544       Co560   2.084       .  S
N545        C559   1.338       .  A
N546        N574   1.325       .  A
N546       Co564   2.085       .  S
H547        C570   1.081       .  S
H548        C565   1.081       .  S
N550       Co564   2.083       .  S
N551        N563   1.326       .  A
N551        N567   1.320       .  A
N551       Co560   2.086       .  S
C552        N556   1.350       .  A
C552        C566   1.455       .  S
C552        C617   1.465       .  S
C553        C572   1.456       .  S
C553        H557   1.081       .  S
N554        C565   1.340       .  A
N554       Co564   2.086       .  S
C558        N574   1.349       .  A
C558        C570   1.456       .  S
C558        C665   1.466       .  S
Co560      Cl571   2.451       .  S
N561        C572   1.350       .  A
C562        C585   1.463       .  S
Co564      Cl571   2.452       .  S
C572        C646   1.468       .  S
C575        C580   1.381       .  A
C575        C576   1.404       .  A
C575        O581   1.320       .  A
C576        H587   1.082       .  S
C576        C577   1.404       .  A
C577        C586   1.362       .  A
C577        C578   1.381       .  A
C578        C579   1.399       .  A
C578        O584   1.316       .  A
C579        H588   1.082       .  S
C579        C580   1.398       .  A
C580        C583   1.356       .  A
O581        C582   1.331       .  A
C582        C583   1.388       .  A
C583        H589   1.082       .  S
O584        C585   1.328       .  A
C585        C586   1.391       .  A
C586        H590   1.082       .  S
C591        C596   1.381       .  A
C591        C592   1.400       .  A
C591        O597   1.317       .  A
C592        H603   1.082       .  S
C592        C593   1.400       .  A
C593        C602   1.358       .  A
C593        C594   1.381       .  A
C594        C595   1.404       .  A
C594        O600   1.319       .  A
C595        H604   1.082       .  S
C595        C596   1.403       .  A
C596        C599   1.362       .  A
O597        C598   1.329       .  A
C598        C599   1.391       .  A
C599        H605   1.082       .  S
O600        C601   1.330       .  A
C601        C602   1.389       .  A
C602        H606   1.082       .  S
C607        C612   1.381       .  A
C607        C608   1.400       .  A
C607        O613   1.316       .  A
C608        H619   1.082       .  S
C608        C609   1.399       .  A
C609        C618   1.357       .  A
C609        C610   1.381       .  A
C610        C611   1.404       .  A
C610        O616   1.320       .  A
C611        H620   1.082       .  S
C611        C612   1.403       .  A
C612        C615   1.362       .  A
O613        C614   1.328       .  A
C614        C615   1.391       .  A
C615        H621   1.082       .  S
O616        C617   1.331       .  A
C617        C618   1.389       .  A
C618        H622   1.082       .  S
C623        C628   1.381       .  A
C623        C624   1.400       .  A
C623        O629   1.316       .  A
C624        H635   1.083       .  S
C624        C625   1.399       .  A
C625        C634   1.357       .  A
C625        C626   1.381       .  A
C626        C627   1.405       .  A
C626        O632   1.320       .  A
C627        H636   1.082       .  S
C627        C628   1.405       .  A
C628        C631   1.363       .  A
O629        C630   1.328       .  A
C630        C631   1.392       .  A
C631        H637   1.082       .  S
O632        C633   1.331       .  A
C633        C634   1.389       .  A
C634        H638   1.082       .  S
C639        C644   1.380       .  A
C639        C640   1.405       .  A
C639        O645   1.321       .  A
C640        H651   1.082       .  S
C640        C641   1.404       .  A
C641        C650   1.363       .  A
C641        C642   1.381       .  A
C642        C643   1.401       .  A
C642        O648   1.317       .  A
C643        H652   1.082       .  S
C643        C644   1.400       .  A
C644        C647   1.358       .  A
O645        C646   1.331       .  A
C646        C647   1.389       .  A
C647        H653   1.082       .  S
O648        C649   1.329       .  A
C649        C650   1.391       .  A
C650        H654   1.082       .  S
C655        C660   1.381       .  A
C655        C656   1.404       .  A
C655        O661   1.320       .  A
C656        H667   1.082       .  S
C656        C657   1.403       .  A
C657        C666   1.362       .  A
C657        C658   1.381       .  A
C658        C659   1.402       .  A
C658        O664   1.318       .  A
C659        H668   1.082       .  S
C659        C660   1.401       .  A
C660        C663   1.359       .  A
O661        C662   1.331       .  A
C662        C663   1.390       .  A
C663        H669   1.082       .  S
O664        C665   1.329       .  A
C665        C666   1.391       .  A
C666        H670   1.082       .  S
C671        C676   1.381       .  A
C671        C672   1.399       .  A
C671        O677   1.316       .  A
C672        H683   1.082       .  S
C672        C673   1.399       .  A
C673        C682   1.357       .  A
C673        C674   1.381       .  A
C674        C675   1.405       .  A
C674        O680   1.320       .  A
C675        H684   1.082       .  S
C675        C676   1.404       .  A
C676        C679   1.363       .  A
O677        C678   1.328       .  A
C678        C679   1.392       .  A
C679        H685   1.082       .  S
O680        C681   1.331       .  A
C681        C682   1.389       .  A
C682        H686   1.082       .  S
C687        C692   1.381       .  A
C687        C688   1.404       .  A
C687        O693   1.320       .  A
C688        H699   1.082       .  S
C688        C689   1.404       .  A
C689        C698   1.362       .  A
C689        C690   1.381       .  A
C690        C691   1.400       .  A
C690        O696   1.317       .  A
C691        H700   1.082       .  S
C691        C692   1.400       .  A
C692        C695   1.358       .  A
O693        C694   1.331       .  A
C694        C695   1.389       .  A
C695        H701   1.082       .  S
O696        C697   1.329       .  A
C697        C698   1.391       .  A
C698        H702   1.082       .  S
C703        N721   1.348       .  A
C703        C740   1.457       .  S
C703        C848   1.464       .  S
N704        N721   1.324       .  A
N704        N726   1.320       .  A
N704       Co741   2.079   1_565  S
C705        N730   1.340       .  A
C705        C743   1.457       .  S
C705        H750   1.081       .  S
H706        C747   1.081       .  S
C707        N731   1.340       .  A
C707        C711   1.456       .  S
C707        H736   1.081       .  S
Co708       N716   2.079   1_545  S
Co708       N724   2.083       .  S
N709        C747   1.341       .  A
N709        N716   1.321       .  A
Co710       N713   2.085   1_545  S
Co710       N717   2.092       .  S
C711        N749   1.349       .  A
C711        C883   1.466       .  S
N712        N719   1.320       .  A
N712        N742   1.326       .  A
N712       Co745   2.085   1_565  S
N713        N731   1.321       .  A
N713        N749   1.325       .  A
N714        C743   1.348       .  A
N714        N724   1.325       .  A
H715        C740   1.081       .  S
N716        N737   1.324       .  A
N717        N735   1.321       .  A
N717        N722   1.327       .  A
C718        N722   1.351       .  A
C718        C746   1.456       .  S
C718        C896   1.468       .  S
N719        C734   1.338       .  A
C720        N748   1.337       .  A
C720        C723   1.456       .  S
C720        H754   1.081       .  S
C723        N744   1.349       .  A
C723        C816   1.465       .  S
N724        N730   1.321       .  A
N725        C751   1.338       .  A
N725        N727   1.320       .  A
N726        C740   1.340       .  A
N727        N755   1.326       .  A
N727       Co745   2.089       .  S
H728        C751   1.081       .  S
H729        C746   1.081       .  S
N732        N744   1.326       .  A
N732        N748   1.320       .  A
N732       Co741   2.084       .  S
C733        N737   1.348       .  A
C733        C747   1.457       .  S
C733        C931   1.465       .  S
C734        C753   1.456       .  S
C734        H738   1.081       .  S
N735        C746   1.338       .  A
C739        N755   1.350       .  A
C739        C751   1.456       .  S
C739        C835   1.466       .  S
Co741      Cl752   2.450       .  S
N742        C753   1.349       .  A
C743        C864   1.465       .  S
C753        C915   1.466       .  S
C756        N774   1.350       .  A
C756        C793   1.456       .  S
C756        C928   1.466       .  S
N757        N774   1.326       .  A
N757        N779   1.320       .  A
N757       Co794   2.089       .  S
C758        N783   1.340       .  A
C758        C796   1.456       .  S
C758        H803   1.081       .  S
H759        C800   1.081       .  S
C760        N784   1.340       .  A
C760        C764   1.456       .  S
C760        H789   1.081       .  S
Co761       N779   2.075       .  S
Co761       N769   2.087       .  S
Co761       N801   2.079       .  S
Co761       N777   2.079       .  S
Co761      Cl805   2.449       .  S
N762        C800   1.337       .  A
N762        N769   1.320       .  A
N762       Co763   2.076       .  S
Co763       N766   2.083       .  S
Co763       N783   2.081       .  S
Co763       N770   2.081       .  S
Co763      Cl805   2.450       .  S
C764        N802   1.348       .  A
C764        C912   1.465       .  S
N765        N772   1.321       .  A
N765        N795   1.327       .  A
N765       Co798   2.091       .  S
N766        N784   1.321       .  A
N766        N802   1.325       .  A
N767        C796   1.347       .  A
N767        N777   1.324       .  A
H768        C793   1.081       .  S
N769        N790   1.326       .  A
N770        N788   1.321       .  A
N770        N775   1.325       .  A
C771        N775   1.348       .  A
C771        C799   1.457       .  S
C771        C832   1.465       .  S
N772        C787   1.338       .  A
N772       Co794   2.079       .  S
C773        N801   1.338       .  A
C773        C776   1.457       .  S
C773        H807   1.081       .  S
C776        N797   1.350       .  A
C776        C867   1.466       .  S
N777        N783   1.320       .  A
N778        C804   1.341       .  A
N778        N780   1.321       .  A
N778       Co794   2.084       .  S
N779        C793   1.338       .  A
N780        N808   1.325       .  A
N780       Co798   2.085       .  S
H781        C804   1.081       .  S
H782        C799   1.081       .  S
N784       Co798   2.083       .  S
N785        N797   1.326       .  A
N785        N801   1.320       .  A
N785       Co794   2.086       .  S
C786        N790   1.350       .  A
C786        C800   1.455       .  S
C786        C851   1.465       .  S
C787        C806   1.456       .  S
C787        H791   1.081       .  S
N788        C799   1.340       .  A
N788       Co798   2.086       .  S
C792        N808   1.349       .  A
C792        C804   1.456       .  S
C792        C899   1.466       .  S
Co794      Cl805   2.451       .  S
N795        C806   1.350       .  A
C796        C819   1.463       .  S
Co798      Cl805   2.452       .  S
C806        C880   1.468       .  S
C809        C814   1.381       .  A
C809        C810   1.404       .  A
C809        O815   1.320       .  A
C810        H821   1.082       .  S
C810        C811   1.404       .  A
C811        C820   1.362       .  A
C811        C812   1.381       .  A
C812        C813   1.399       .  A
C812        O818   1.316       .  A
C813        H822   1.082       .  S
C813        C814   1.398       .  A
C814        C817   1.356       .  A
O815        C816   1.331       .  A
C816        C817   1.388       .  A
C817        H823   1.082       .  S
O818        C819   1.328       .  A
C819        C820   1.391       .  A
C820        H824   1.082       .  S
C825        C830   1.381       .  A
C825        C826   1.400       .  A
C825        O831   1.317       .  A
C826        H837   1.082       .  S
C826        C827   1.400       .  A
C827        C836   1.358       .  A
C827        C828   1.381       .  A
C828        C829   1.404       .  A
C828        O834   1.319       .  A
C829        H838   1.082       .  S
C829        C830   1.403       .  A
C830        C833   1.362       .  A
O831        C832   1.329       .  A
C832        C833   1.391       .  A
C833        H839   1.082       .  S
O834        C835   1.330       .  A
C835        C836   1.389       .  A
C836        H840   1.082       .  S
C841        C846   1.381       .  A
C841        C842   1.400       .  A
C841        O847   1.316       .  A
C842        H853   1.082       .  S
C842        C843   1.399       .  A
C843        C852   1.357       .  A
C843        C844   1.381       .  A
C844        C845   1.404       .  A
C844        O850   1.320       .  A
C845        H854   1.082       .  S
C845        C846   1.403       .  A
C846        C849   1.362       .  A
O847        C848   1.328       .  A
C848        C849   1.391       .  A
C849        H855   1.082       .  S
O850        C851   1.331       .  A
C851        C852   1.389       .  A
C852        H856   1.082       .  S
C857        C862   1.381       .  A
C857        C858   1.400       .  A
C857        O863   1.316       .  A
C858        H869   1.083       .  S
C858        C859   1.399       .  A
C859        C868   1.357       .  A
C859        C860   1.381       .  A
C860        C861   1.405       .  A
C860        O866   1.320       .  A
C861        H870   1.082       .  S
C861        C862   1.405       .  A
C862        C865   1.363       .  A
O863        C864   1.328       .  A
C864        C865   1.392       .  A
C865        H871   1.082       .  S
O866        C867   1.331       .  A
C867        C868   1.389       .  A
C868        H872   1.082       .  S
C873        C878   1.380       .  A
C873        C874   1.405       .  A
C873        O879   1.321       .  A
C874        H885   1.082       .  S
C874        C875   1.404       .  A
C875        C884   1.363       .  A
C875        C876   1.381       .  A
C876        C877   1.400       .  A
C876        O882   1.317       .  A
C877        H886   1.082       .  S
C877        C878   1.400       .  A
C878        C881   1.358       .  A
O879        C880   1.331       .  A
C880        C881   1.389       .  A
C881        H887   1.082       .  S
O882        C883   1.329       .  A
C883        C884   1.391       .  A
C884        H888   1.082       .  S
C889        C894   1.381       .  A
C889        C890   1.404       .  A
C889        O895   1.320       .  A
C890        H901   1.082       .  S
C890        C891   1.403       .  A
C891        C900   1.362       .  A
C891        C892   1.381       .  A
C892        C893   1.402       .  A
C892        O898   1.318       .  A
C893        H902   1.082       .  S
C893        C894   1.401       .  A
C894        C897   1.359       .  A
O895        C896   1.331       .  A
C896        C897   1.390       .  A
C897        H903   1.082       .  S
O898        C899   1.329       .  A
C899        C900   1.391       .  A
C900        H904   1.082       .  S
C905        C910   1.381       .  A
C905        C906   1.399       .  A
C905        O911   1.316       .  A
C906        H917   1.082       .  S
C906        C907   1.399       .  A
C907        C916   1.357       .  A
C907        C908   1.381       .  A
C908        C909   1.405       .  A
C908        O914   1.320       .  A
C909        H918   1.082       .  S
C909        C910   1.404       .  A
C910        C913   1.363       .  A
O911        C912   1.328       .  A
C912        C913   1.392       .  A
C913        H919   1.082       .  S
O914        C915   1.331       .  A
C915        C916   1.389       .  A
C916        H920   1.082       .  S
C921        C926   1.381       .  A
C921        C922   1.404       .  A
C921        O927   1.320       .  A
C922        H933   1.082       .  S
C922        C923   1.404       .  A
C923        C932   1.362       .  A
C923        C924   1.381       .  A
C924        C925   1.400       .  A
C924        O930   1.317       .  A
C925        H934   1.082       .  S
C925        C926   1.400       .  A
C926        C929   1.358       .  A
O927        C928   1.331       .  A
C928        C929   1.389       .  A
C929        H935   1.082       .  S
O930        C931   1.329       .  A
C931        C932   1.391       .  A
C932        H936   1.082       .  S
