geometry optimzed in LAMMPS
_audit_creation_date              2020-11-30 
_audit_creation_method            'lammps2cif' 
_symmetry_space_group_name_H-M    'P1' 
_symmetry_Int_Tables_number       1 
_symmetry_cell_setting            triclinic 
loop_ 
_symmetry_equiv_pos_as_xyz 
  x,y,z 
_cell_length_a                    41.61049541 
_cell_length_b                    38.75605836521621 
_cell_length_c                    36.7823217919704 
_cell_angle_alpha                 90.96787789465385 
_cell_angle_beta                  89.97244382379978 
_cell_angle_gamma                 91.51560852194838 
loop_ 
_atom_site_label 
_atom_site_type_symbol 
_atom_site_fract_x 
_atom_site_fract_y 
_atom_site_fract_z 
_atom_site_charge 
O1          O  0.43175950  0.46866528  0.02144730    -0.79700
O2          O  0.05490477  0.02522197  0.04014787    -0.79700
O3          O  0.03102254  0.45299150  0.06304442    -0.79700
O4          O  0.47774675  0.07384201  0.02579028    -0.79600
O5          O  0.06709985  0.46587249  0.02172626    -0.79800
O6          O  0.44956632  0.02883334  0.04005709    -0.79700
O7          O  0.03421300  0.07163480  0.02175233    -0.79700
O8          O  0.46803713  0.45506812  0.06120062    -0.79700
C9          C  0.43896527  0.45490870  0.05128745     1.10000
C10         C  0.05303515  0.05702176  0.04295022     1.09900
C11         C  0.05995032  0.45301279  0.05238789     1.10100
C12         C  0.45654153  0.06007172  0.04541631     1.09900
O13         O  0.42218856  0.02626763  0.47800535    -0.79700
O14         O  0.03780892  0.47321304  0.44759144    -0.79700
O15         O  0.46543084  0.42740287  0.48638300    -0.79700
O16         O  0.03762137  0.04210865  0.45006582    -0.79600
O17         O  0.08333250  0.02172907  0.47038767    -0.79700
O18         O  0.46485672  0.47251430  0.45199374    -0.79700
O19         O  0.46709094  0.05001047  0.45551208    -0.79600
O20         O  0.03262310  0.42773751  0.48130472    -0.79700
Co21       Co  0.45969612  0.50501580  0.99788064     1.51500
Co22       Co  0.04699960  0.00184613  0.49452454     1.51700
Co23       Co  0.50086319  0.44582270  0.02398837     1.51600
Co24       Co  0.50430164  0.05222692  0.49393078     1.51500
O25         O  0.50310077  0.49835275  0.01406026    -1.41600
C26         C  0.43589025  0.04695337  0.45619873     1.10000
C27         C  0.04017106  0.44103043  0.45111157     1.10100
C28         C  0.45945530  0.44061720  0.45596497     1.10000
C29         C  0.06879387  0.04270424  0.45023463     1.10000
O30         O  0.31708999  0.28239251  0.27013704    -0.79700
O31         O  0.18512833  0.21788927  0.26283824    -0.79700
O32         O  0.21396169  0.29787861  0.30566599    -0.79700
O33         O  0.27292838  0.16707999  0.27218714    -0.79600
O34         O  0.17822694  0.28742926  0.26255741    -0.79800
O35         O  0.29782918  0.21583370  0.28865048    -0.79700
O36         O  0.22688373  0.21049730  0.29902664    -0.79700
O37         O  0.27972421  0.29384572  0.30909557    -0.79700
C38         C  0.30893666  0.29547884  0.30024433     1.10000
C39         C  0.19698018  0.20746013  0.29274640     1.09900
C40         C  0.18525071  0.29850602  0.29453584     1.10100
C41         C  0.29422179  0.18258008  0.29124278     1.09900
O42         O  0.33036185  0.22915797  0.22699683    -0.79700
O43         O  0.21255401  0.29122690  0.19380002    -0.79700
O44         O  0.28321362  0.32310039  0.23552485    -0.79700
O45         O  0.22370161  0.18116329  0.22793114    -0.79600
O46         O  0.21730178  0.22248725  0.19051389    -0.79700
O47         O  0.28938494  0.27685408  0.20036999    -0.79700
O48         O  0.28580183  0.20137732  0.21081543    -0.79600
O49         O  0.21887891  0.33112584  0.23614749    -0.79700
Co50       Co  0.29086174  0.24690574  0.24286689     1.51500
Co51       Co  0.20098322  0.25470085  0.22795811     1.51700
Co52       Co  0.24897971  0.30814803  0.27128261     1.51600
Co53       Co  0.25605981  0.20922823  0.25678749     1.51500
O54         O  0.24496712  0.25914978  0.25065043    -1.41600
C55         C  0.31671608  0.20564607  0.20808660     1.10000
C56         C  0.21103491  0.32235498  0.20376641     1.10100
C57         C  0.29198506  0.30920933  0.20543817     1.10000
C58         C  0.21399736  0.19109180  0.19744962     1.10000
C59         C  0.11856732  0.07925271  0.11231091    -0.13900
C60         C  0.11887948  0.11515603  0.11271262     0.16500
C61         C  0.09681192  0.13228131  0.09054357     0.02800
C62         C  0.07473077  0.11302402  0.06903565    -0.12400
C63         C  0.07434474  0.07676480  0.06880948    -0.03400
C64         C  0.09671442  0.06007589  0.09115142     0.02000
C65         C  0.14411000  0.13364077  0.13441831     0.08900
N66         N  0.09664747  0.16909350  0.08933356     0.65200
H67         H  0.05823271  0.12664354  0.05182953     0.18100
N68         N  0.09880814  0.02354974  0.09198652     0.75700
H69         H  0.13630783  0.06563120  0.12788792     0.09700
C70         C  0.14952591  0.12600955  0.17134107     0.03400
C71         C  0.17426785  0.14320058  0.19045387    -0.05400
C72         C  0.19372881  0.16837840  0.17380381    -0.23700
C73         C  0.18990359  0.17402179  0.13615725     0.12600
C74         C  0.16530790  0.15654660  0.11698590    -0.12900
N75         N  0.12935797  0.10190787  0.19028396     0.64300
H76         H  0.17701994  0.13810319  0.21927865     0.12100
N77         N  0.21124943  0.19631578  0.11650427     0.60900
H78         H  0.16295601  0.16075724  0.08795675     0.08300
O79         O  0.08502794  0.00779636  0.11759837    -0.40500
O80         O  0.12660044  0.00888814  0.58568919    -0.39700
O81         O  0.10804803  0.18420844  0.06187523    -0.39700
O82         O  0.07890688  0.18542694  0.11105486    -0.37400
O83         O  0.22836377  0.18339493  0.09172270    -0.38300
O84         O  0.20522084  0.22791642  0.11520501    -0.34500
O85         O  0.14070677  0.07364589  0.20008567    -0.35900
O86         O  0.10358006  0.11205445  0.20443502    -0.40200
C87         C  0.16523958  0.16121107  0.37649709    -0.13900
C88         C  0.14264471  0.13806155  0.36056555     0.16500
C89         C  0.13627472  0.14020074  0.32304956     0.02800
C90         C  0.15289758  0.16453198  0.30212093    -0.12400
C91         C  0.17650739  0.18670491  0.31754941    -0.03400
C92         C  0.18222928  0.18541076  0.35537878     0.02000
C93         C  0.12428086  0.11321618  0.38342276     0.08900
N94         N  0.11417743  0.11653342  0.30547442     0.65200
H95         H  0.14834915  0.16482241  0.27295428     0.18100
N96         N  0.20409283  0.20939550  0.37288781     0.75700
H97         H  0.16944462  0.16076646  0.40570027     0.09700
C98         C  0.13946194  0.08741890  0.40320111     0.03400
C99         C  0.12098576  0.06410915  0.42383074    -0.05400
C100        C  0.08734977  0.06644416  0.42603223    -0.23700
C101        C  0.07244636  0.09321214  0.40705652     0.12600
C102        C  0.09086169  0.11577745  0.38569246    -0.12900
N103        N  0.17359379  0.08446821  0.40247864     0.64300
H104        H  0.13322294  0.04433493  0.43863918     0.12100
N105        N  0.03915097  0.09995798  0.41169267     0.60900
H106        H  0.07900423  0.13632993  0.37162525     0.08300
O107        O  0.23106271  0.19935803  0.38351649    -0.40500
O108        O  0.19388830  0.23790540  0.38450035    -0.39700
O109        O  0.08791846  0.12723779  0.29345290    -0.39700
O110        O  0.12345691  0.08701273  0.29589105    -0.37400
O111        O  0.01954162  0.09201581  0.38656895    -0.38300
O112        O  0.03081926  0.12030355  0.43690379    -0.34500
O113        O  0.19009717  0.09592486  0.42903264    -0.35900
O114        O  0.18626671  0.06463051  0.37935951    -0.40400
C115        C  0.16955672  0.36063003  0.12190964    -0.13900
C116        C  0.16114593  0.39284685  0.13567776     0.16500
C117        C  0.17230145  0.40373456  0.17016922     0.02800
C118        C  0.19012301  0.38126254  0.19141655    -0.12400
C119        C  0.19694286  0.34773455  0.17859667    -0.03400
C120        C  0.18707040  0.33808459  0.14282922     0.02000
C121        C  0.13638285  0.41167153  0.11600579     0.08900
N122        N  0.16498546  0.43725603  0.18409668     0.65200
H123        H  0.19751160  0.38961847  0.21837748     0.18100
N124        N  0.19182768  0.30436022  0.12815999     0.75700
H125        H  0.16061676  0.35193478  0.09560544     0.09700
C126        C  0.14234479  0.42497908  0.08131140     0.03400
C127        C  0.11706035  0.43777884  0.06105580    -0.05400
C128        C  0.08551273  0.43794196  0.07484339    -0.23700
C129        C  0.07958482  0.42422361  0.10974880     0.12600
C130        C  0.10504506  0.41148085  0.12994588    -0.12900
N131        N  0.17402584  0.42573994  0.06635550     0.64300
H132        H  0.12235783  0.44784500  0.03431569     0.12100
N133        N  0.04790405  0.42187819  0.12469961     0.60900
H134        H  0.10010196  0.40009535  0.15617922     0.08300
O135        O  0.21510681  0.29962284  0.10681433    -0.40500
O136        O  0.16845178  0.28293336  0.12809774    -0.39700
O137        O  0.14265979  0.44060677  0.20699875    -0.39700
O138        O  0.17740239  0.46369182  0.16956079    -0.37400
O139        O  0.03090082  0.39487838  0.11900819    -0.38300
O140        O  0.03991630  0.44280871  0.14953655    -0.34500
O141        O  0.18167442  0.40319381  0.04300099    -0.35900
O142        O  0.19163116  0.45250767  0.07061594    -0.40200
C143        C  0.42536330  0.13467379  0.10358098    -0.13900
C144        C  0.39837232  0.11899705  0.11988675     0.16500
C145        C  0.39153054  0.08376327  0.11281443     0.02800
C146        C  0.41147987  0.06493684  0.08964949    -0.12400
C147        C  0.43833128  0.08058308  0.07269933    -0.03400
C148        C  0.44528358  0.11599571  0.08014844     0.02000
C149        C  0.37705034  0.14017006  0.14307492     0.08900
N150        N  0.36446386  0.06666927  0.12912646     0.65200
H151        H  0.40540314  0.03790213  0.08440208     0.18100
N152        N  0.47198070  0.13370048  0.06373453     0.75700
H153        H  0.43060633  0.16195730  0.10840444     0.09700
C154        C  0.38895475  0.15768565  0.17428938     0.03400
C155        C  0.36887083  0.17902011  0.19450245    -0.05400
C156        C  0.33670452  0.18349718  0.18439666    -0.23700
C157        C  0.32482275  0.16614054  0.15301233     0.12600
C158        C  0.34497819  0.14464539  0.13270169    -0.12900
N159        N  0.42122134  0.15340631  0.18631991     0.64300
H160        H  0.37850355  0.19173218  0.21884086     0.12100
N161        N  0.29335449  0.17225745  0.13975721     0.60900
H162        H  0.33581588  0.13221704  0.10798673     0.08300
O163        O  0.46624315  0.15406151  0.53879130    -0.40500
O164        O  0.42056817  0.14021954  0.51290778    -0.39700
O165        O  0.34004234  0.05897608  0.11003218    -0.39700
O166        O  0.36746203  0.05333850  0.15995414    -0.37400
O167        O  0.28936839  0.19720696  0.11880532    -0.38300
O168        O  0.27174920  0.14894933  0.14213019    -0.34500
O169        O  0.44172102  0.17762871  0.18235308    -0.35900
O170        O  0.42732873  0.12903014  0.20732766    -0.40200
C171        C  0.35236934  0.34414445  0.37728337    -0.13900
C172        C  0.37704011  0.36134518  0.35816513     0.16500
C173        C  0.37936330  0.35621772  0.32027901     0.02800
C174        C  0.35724473  0.33410444  0.30238778    -0.12400
C175        C  0.33254299  0.31679114  0.32141798    -0.03400
C176        C  0.33015498  0.32204316  0.35935399     0.02000
C177        C  0.40136553  0.38202068  0.37905101     0.08900
N178        N  0.40462979  0.37219843  0.29973529     0.65200
H179        H  0.35933359  0.33068715  0.27304830     0.18100
N180        N  0.30638299  0.30397958  0.38025703     0.75700
H181        H  0.35068718  0.34751695  0.40665910     0.09700
C182        C  0.40393616  0.41830025  0.37714254     0.03400
C183        C  0.42493970  0.43669355  0.40064329    -0.05400
C184        C  0.44261152  0.41972240  0.42722651    -0.23700
C185        C  0.44070327  0.38319423  0.42811105     0.12600
C186        C  0.42055084  0.36488447  0.40381628    -0.12900
N187        N  0.38320615  0.43709336  0.35420161     0.64300
H188        H  0.42556044  0.46469713  0.39977234     0.12100
N189        N  0.45788055  0.36416206  0.45439941     0.60900
H190        H  0.41875289  0.33694169  0.40541984     0.08300
O191        O  0.28254657  0.31999453  0.39241623    -0.40500
O192        O  0.31289454  0.27508386  0.39331372    -0.39700
O193        O  0.43049488  0.35642223  0.29514519    -0.39700
O194        O  0.39802625  0.39631753  0.27859519    -0.37400
O195        O  0.44432473  0.35681972  0.48408856    -0.38300
O196        O  0.48180538  0.34715140  0.44425576    -0.34500
O197        O  0.35525228  0.44361355  0.36520634    -0.35900
O198        O  0.39520123  0.45446753  0.32860616    -0.40200
C199        C  0.34085679  0.10986232  0.33198803    -0.13900
C200        C  0.35030499  0.12420128  0.36558909     0.16500
C201        C  0.34183012  0.15846717  0.37438031     0.02800
C202        C  0.32379286  0.17731796  0.34978243    -0.12400
C203        C  0.31390248  0.16262641  0.31643191    -0.03400
C204        C  0.32294446  0.12860368  0.30744031     0.02000
C205        C  0.37176346  0.10421047  0.38908575     0.08900
N206        N  0.35103347  0.17432576  0.40828656     0.65200
H207        H  0.31712669  0.20347864  0.35703174     0.18100
N208        N  0.31614925  0.11355791  0.27244488     0.75700
H209        H  0.34857240  0.08424233  0.32403228     0.09700
C210        C  0.36329231  0.07075036  0.40093542     0.03400
C211        C  0.38493880  0.05242912  0.42182222    -0.05400
C212        C  0.41550548  0.06633481  0.43083437    -0.23700
C213        C  0.42443610  0.09932002  0.41745244     0.12600
C214        C  0.40249729  0.11769872  0.39697259    -0.12900
N215        N  0.33267576  0.05514107  0.39239693     0.64300
H216        H  0.37758832  0.02693953  0.43122240     0.12100
N217        N  0.45538474  0.11494461  0.42415824     0.60900
H218        H  0.40976660  0.14289742  0.38669817     0.08300
O219        O  0.29468047  0.09008159  0.26941242    -0.40500
O220        O  0.33619648  0.11775541  0.24704228    -0.39700
O221        O  0.37363176  0.19669584  0.40901833    -0.39700
O222        O  0.33218650  0.17213935  0.43507606    -0.37400
O223        O  0.46218820  0.12616781  0.45567265    -0.38300
O224        O  0.47127154  0.12642671  0.39753102    -0.34500
O225        O  0.33078001  0.03205475  0.36782134    -0.35900
O226        O  0.30982745  0.05813770  0.41468602    -0.40200
C227        C  0.14451188  0.35134358  0.36938450    -0.13900
C228        C  0.11316367  0.35294233  0.35605465     0.16500
C229        C  0.10480237  0.33493794  0.32382994     0.02800
C230        C  0.12820557  0.31635833  0.30476806    -0.12400
C231        C  0.16021002  0.31539704  0.31744937    -0.03400
C232        C  0.16799948  0.33302265  0.35057317     0.02000
C233        C  0.08993670  0.37410360  0.37640070     0.08900
N234        N  0.07269874  0.33556702  0.31013805     0.65200
H235        H  0.12138469  0.30319069  0.27966242     0.18100
N236        N  0.19988910  0.33396431  0.36499867     0.75700
H237        H  0.15099331  0.36510709  0.39430548     0.09700
C238        C  0.07470058  0.36113297  0.40750959     0.03400
C239        C  0.05768397  0.38323907  0.43030329    -0.05400
C240        C  0.05485796  0.41852791  0.42267411    -0.23700
C241        C  0.06892386  0.43115633  0.39027418     0.12600
C242        C  0.08638058  0.40886909  0.36759738    -0.12900
N243        N  0.07741517  0.32575812  0.41708305     0.64300
H244        H  0.04745708  0.37260163  0.45501201     0.12100
N245        N  0.06754770  0.46673457  0.38106705     0.60900
H246        H  0.09840181  0.41912412  0.34370270     0.08300
O247        O  0.21884251  0.35862776  0.35695647    -0.40500
O248        O  0.20634838  0.31533642  0.39168652    -0.39700
O249        O  0.05139627  0.31543072  0.32294655    -0.39700
O250        O  0.06459751  0.35963880  0.28966346    -0.37400
O251        O  0.09166978  0.48638603  0.38716694    -0.38300
O252        O  0.04599646  0.47627778  0.35961159    -0.34500
O253        O  0.09858545  0.31740238  0.43960160    -0.35900
O254        O  0.05500313  0.30447247  0.40890129    -0.40200
C255        C  0.35996860  0.42251859  0.09262602    -0.13900
C256        C  0.37084334  0.39542602  0.11376446     0.16500
C257        C  0.40385546  0.38841613  0.11436836     0.02800
C258        C  0.42535517  0.40863178  0.09432177    -0.12400
C259        C  0.41470603  0.43570873  0.07290401    -0.03400
C260        C  0.38149960  0.44250741  0.07193864     0.02000
C261        C  0.34763642  0.37408552  0.13454607     0.08900
N262        N  0.41597078  0.36102613  0.13553111     0.65200
H263        H  0.45070481  0.40259204  0.09514077     0.18100
N264        N  0.36924614  0.46965367  0.05057056     0.75700
H265        H  0.33445892  0.42780562  0.09170110     0.09700
C266        C  0.32909396  0.38845314  0.16266441     0.03400
C267        C  0.30969614  0.36698758  0.18401961    -0.05400
C268        C  0.30832285  0.33107526  0.17800451    -0.23700
C269        C  0.32521402  0.31706526  0.14798532     0.12600
C270        C  0.34473300  0.33865317  0.12677929    -0.12900
N271        N  0.33113567  0.42451893  0.17123590     0.64300
H272        H  0.29657523  0.37856914  0.20645155     0.12100
N273        N  0.32328421  0.28110716  0.13881228     0.60900
H274        H  0.35816788  0.32755103  0.10429784     0.08300
O275        O  0.36002972  0.49684635  0.06626362    -0.40500
O276        O  0.36018011  0.46307901  0.01840403    -0.39700
O277        O  0.42464288  0.33361083  0.11980966    -0.39700
O278        O  0.42425753  0.36697391  0.16807331    -0.37400
O279        O  0.30212202  0.27032195  0.11653071    -0.38300
O280        O  0.34664847  0.26224281  0.14593959    -0.34500
O281        O  0.30825373  0.44349596  0.16266009    -0.35900
O282        O  0.35196044  0.43568454  0.19373587    -0.40200
O283        O  0.42988198  0.46638079  0.52072645    -0.79700
O284        O  0.06098719  0.02474410  0.53997690    -0.79700
O285        O  0.03588804  0.45016765  0.55628736    -0.79700
O286        O  0.47540542  0.07579470  0.52947441    -0.79600
O287        O  0.07257358  0.46331141  0.51575985    -0.79800
O288        O  0.44743021  0.03126088  0.54554315    -0.79700
O289        O  0.03996725  0.07160807  0.52318567    -0.79700
O290        O  0.46585266  0.45276522  0.56085759    -0.79700
C291        C  0.43664561  0.45390594  0.55139953     1.10000
C292        C  0.05875926  0.05648569  0.54381844     1.09900
C293        C  0.06494557  0.45020210  0.54621869     1.10100
C294        C  0.45423028  0.06266054  0.54963750     1.09900
O295        O  0.42427429  0.02458525  0.97307121    -0.79700
O296        O  0.03232902  0.47531743  0.95385159    -0.79700
O297        O  0.46833019  0.43048516  0.98632902    -0.79700
O298        O  0.03416744  0.04012144  0.94910425    -0.79600
O299        O  0.07948755  0.02104209  0.97166203    -0.79700
O300        O  0.46588519  0.47659600  0.95310146    -0.79700
O301        O  0.46865476  0.04996515  0.95117469    -0.79600
O302        O  0.02722738  0.43012651  0.98801121    -0.79700
Co303      Co  0.45805832  0.50181634  0.49589263     1.51500
Co304      Co  0.04236827  0.00152103  0.99497588     1.51700
Co305      Co  0.49853140  0.44319405  0.52318767     1.51600
Co306      Co  0.50640185  0.05179072  0.98920088     1.51500
O307        O  0.50115228  0.49575752  0.51259835    -1.41600
C308        C  0.43744252  0.04640144  0.95214735     1.10000
C309        C  0.03517457  0.44327648  0.95782741     1.10100
C310        C  0.46166932  0.44433253  0.95640371     1.10000
C311        C  0.06524085  0.04125997  0.95038130     1.10000
O312        O  0.31527887  0.28494821  0.77570346    -0.79700
O313        O  0.18250545  0.22201159  0.76933291    -0.79700
O314        O  0.21231502  0.30186461  0.81227450    -0.79700
O315        O  0.26909143  0.17029457  0.77884582    -0.79600
O316        O  0.17649280  0.29186752  0.76917656    -0.79800
O317        O  0.29613685  0.21862841  0.79254019    -0.79700
O318        O  0.22407953  0.21448998  0.80554525    -0.79700
O319        O  0.27847147  0.29724515  0.81522457    -0.79700
C320        C  0.30778248  0.29741177  0.80641286     1.10000
C321        C  0.19427805  0.21086467  0.79898501     1.09900
C322        C  0.18356062  0.30272852  0.80122635     1.10100
C323        C  0.29155595  0.18556749  0.79627601     1.09900
O324        O  0.32745925  0.23261786  0.73038589    -0.79700
O325        O  0.21076357  0.29500144  0.70035574    -0.79700
O326        O  0.28181474  0.32712089  0.74226576    -0.79700
O327        O  0.22070195  0.18500494  0.73456365    -0.79600
O328        O  0.21438038  0.22620054  0.69680542    -0.79700
O329        O  0.28707236  0.28180556  0.70562395    -0.79700
O330        O  0.28298438  0.20325330  0.71747922    -0.79600
O331        O  0.21746081  0.33508781  0.74250679    -0.79700
Co332      Co  0.28853997  0.25056448  0.74738314     1.51500
Co333      Co  0.19876250  0.25874712  0.73448963     1.51700
Co334      Co  0.24745401  0.31183913  0.77769938     1.51600
Co335      Co  0.25324717  0.21261876  0.76336298     1.51500
O336        O  0.24300123  0.26277562  0.75674490    -1.41600
C337        C  0.31376418  0.20784905  0.71332355     1.10000
C338        C  0.21008967  0.32626889  0.70998036     1.10100
C339        C  0.29013100  0.31405883  0.71163719     1.10000
C340        C  0.21148394  0.19476207  0.70386268     1.10000
C341        C  0.12120409  0.07975012  0.61634953    -0.13900
C342        C  0.12184762  0.11574449  0.61514237     0.16500
C343        C  0.10088280  0.13224881  0.59130709     0.02800
C344        C  0.07978910  0.11246986  0.56932666    -0.12400
C345        C  0.07920678  0.07622747  0.57030829    -0.03400
C346        C  0.10012550  0.05993386  0.59461925     0.02000
C347        C  0.14570043  0.13517740  0.63776944     0.08900
N348        N  0.10065093  0.16900852  0.58915240     0.65200
H349        H  0.06416897  0.12574033  0.55078475     0.18100
N350        N  0.10152248  0.02332031  0.59674030     0.75700
H351        H  0.13785289  0.06668747  0.63391289     0.09700
C352        C  0.14767345  0.13000155  0.67555971     0.03400
C353        C  0.17120256  0.14774376  0.69598763    -0.05400
C354        C  0.19248849  0.17146120  0.67970335    -0.23700
C355        C  0.19153235  0.17548655  0.64159283     0.12600
C356        C  0.16832186  0.15713719  0.62104593    -0.12900
N357        N  0.12479870  0.10833185  0.69390359     0.64300
H358        H  0.17141525  0.14453552  0.72529050     0.12100
N359        N  0.21400408  0.19763935  0.62321549     0.60900
H360        H  0.16804831  0.15999663  0.59170998     0.08300
O361        O  0.08318932  0.00766575  0.61867365    -0.40500
O362        O  0.12225168  0.00982215  0.07614382    -0.39700
O363        O  0.11269480  0.18356277  0.56169809    -0.39700
O364        O  0.08235573  0.18573212  0.60990904    -0.37400
O365        O  0.23820866  0.18462897  0.60822595    -0.38300
O366        O  0.20470024  0.22628316  0.61217833    -0.34500
O367        O  0.13374025  0.08051067  0.70754849    -0.35900
O368        O  0.09792053  0.12020099  0.70282135    -0.40200
C369        C  0.16508501  0.15600514  0.87830050    -0.13900
C370        C  0.13978714  0.13687619  0.86177449     0.16500
C371        C  0.13101810  0.14450516  0.82584215     0.02800
C372        C  0.14785335  0.17022059  0.80692223    -0.12400
C373        C  0.17398816  0.18855324  0.82275737    -0.03400
C374        C  0.18218724  0.18167812  0.85922905     0.02000
C375        C  0.12098482  0.11109481  0.88314724     0.08900
N376        N  0.10606664  0.12508506  0.80751041     0.65200
H377        H  0.14129152  0.17460411  0.77883336     0.18100
N378        N  0.20698160  0.20125668  0.87768143     0.75700
H379        H  0.17129667  0.15132603  0.90643478     0.09700
C380        C  0.13540679  0.08265427  0.89939883     0.03400
C381        C  0.11689516  0.05999191  0.92079414    -0.05400
C382        C  0.08384073  0.06477524  0.92608179    -0.23700
C383        C  0.06946476  0.09324943  0.90938938     0.12600
C384        C  0.08807973  0.11591717  0.88836143    -0.12900
N385        N  0.16857010  0.07581172  0.89343998     0.64300
H386        H  0.12849355  0.03829957  0.93308418     0.12100
N387        N  0.03624803  0.10047003  0.91443761     0.60900
H388        H  0.07677883  0.13808876  0.87662688     0.08300
O389        O  0.23379309  0.18781679  0.88324092    -0.40500
O390        O  0.19984657  0.22834688  0.89505078    -0.39700
O391        O  0.08025032  0.13950189  0.79942736    -0.39700
O392        O  0.11218618  0.09608568  0.79342381    -0.37400
O393        O  0.01716789  0.09638290  0.88799572    -0.38300
O394        O  0.02780572  0.11830598  0.94165111    -0.34500
O395        O  0.18824196  0.07925116  0.91942601    -0.35900
O396        O  0.17679666  0.05989720  0.86485467    -0.40400
C397        C  0.17603993  0.36478441  0.62406906    -0.13900
C398        C  0.16374840  0.39555495  0.63756358     0.16500
C399        C  0.17034311  0.40592009  0.67368666     0.02800
C400        C  0.18722740  0.38407219  0.69662453    -0.12400
C401        C  0.19763498  0.35173700  0.68384932    -0.03400
C402        C  0.19271158  0.34289466  0.64663074     0.02000
C403        C  0.13927678  0.41253979  0.61553656     0.08900
N404        N  0.15920847  0.43815889  0.68748475     0.65200
H405        H  0.19088278  0.39175428  0.72472001     0.18100
N406        N  0.20137481  0.31019899  0.63186706     0.75700
H407        H  0.17061518  0.35641943  0.59648601     0.09700
C408        C  0.14687195  0.42688326  0.58167715     0.03400
C409        C  0.12227955  0.43768616  0.55895001    -0.05400
C410        C  0.08989756  0.43545946  0.56983446    -0.23700
C411        C  0.08235828  0.42034981  0.60373694     0.12600
C412        C  0.10704071  0.40926860  0.62615484    -0.12900
N413        N  0.17955100  0.43150680  0.57052228     0.64300
H414        H  0.12876940  0.44887320  0.53305388     0.12100
N415        N  0.04986337  0.41478003  0.61534909     0.60900
H416        H  0.10091253  0.39687132  0.65154929     0.08300
O417        O  0.22718467  0.30777867  0.61409320    -0.40500
O418        O  0.17976730  0.28695093  0.62831540    -0.39700
O419        O  0.13519185  0.43874970  0.70841016    -0.39700
O420        O  0.17052095  0.46603237  0.67489115    -0.37400
O421        O  0.03532085  0.38677554  0.60698741    -0.38300
O422        O  0.03831563  0.43416457  0.63967884    -0.34500
O423        O  0.19097242  0.41169316  0.54651339    -0.35900
O424        O  0.19483517  0.45888318  0.57951114    -0.40200
C425        C  0.41082166  0.13751921  0.59454925    -0.13900
C426        C  0.39756051  0.12205661  0.62547320     0.16500
C427        C  0.40381119  0.08705356  0.63187419     0.02800
C428        C  0.42286341  0.06835997  0.60734916    -0.12400
C429        C  0.43635425  0.08398381  0.57646425    -0.03400
C430        C  0.43011278  0.11910968  0.57029797     0.02000
C431        C  0.37628432  0.14283215  0.64944394     0.08900
N432        N  0.39156292  0.07032013  0.66348241     0.65200
H433        H  0.42716065  0.04137570  0.61255367     0.18100
N434        N  0.44067699  0.13581162  0.53796631     0.75700
H435        H  0.40536093  0.16405461  0.58850287     0.09700
C436        C  0.38706318  0.17487974  0.66415240     0.03400
C437        C  0.36594444  0.19553883  0.68371473    -0.05400
C438        C  0.33364471  0.18534182  0.68940308    -0.23700
C439        C  0.32271934  0.15314212  0.67462328     0.12600
C440        C  0.34405358  0.13234524  0.65484154    -0.12900
N441        N  0.41972997  0.18657167  0.66019550     0.64300
H442        H  0.37533812  0.21981347  0.69499790     0.12100
N443        N  0.29015100  0.14126735  0.67883868     0.60900
H444        H  0.33514156  0.10815142  0.64288404     0.08300
O445        O  0.49734620  0.13918915  0.08194690    -0.40500
O446        O  0.46768348  0.15036809  0.03503700    -0.39700
O447        O  0.36878764  0.04832883  0.66030140    -0.39700
O448        O  0.40780660  0.07174601  0.69244942    -0.37400
O449        O  0.27059787  0.14555265  0.65330208    -0.38300
O450        O  0.28338347  0.11898999  0.70240565    -0.34500
O451        O  0.42626536  0.21139788  0.63944844    -0.35900
O452        O  0.44031720  0.17774580  0.68318263    -0.40200
C453        C  0.34908947  0.35444775  0.87898257    -0.13900
C454        C  0.37941724  0.35987241  0.86335488     0.16500
C455        C  0.38721310  0.34156481  0.83133384     0.02800
C456        C  0.36404174  0.31992853  0.81443696    -0.12400
C457        C  0.33290068  0.31566423  0.82898984    -0.03400
C458        C  0.32600976  0.33233907  0.86252863     0.02000
C459        C  0.40315719  0.38287074  0.88242520     0.08900
N460        N  0.41815886  0.34569440  0.81492534     0.65200
H461        H  0.37032617  0.30727250  0.78886517     0.18100
N462        N  0.29577156  0.32754061  0.88026795     0.75700
H463        H  0.34335481  0.36731838  0.90463681     0.09700
C464        C  0.39787568  0.41837626  0.88771910     0.03400
C465        C  0.41871794  0.43840560  0.90987874    -0.05400
C466        C  0.44445292  0.42348628  0.92797995    -0.23700
C467        C  0.45028439  0.38799706  0.92160757     0.12600
C468        C  0.42986520  0.36832979  0.89861732    -0.12900
N469        N  0.37085084  0.43422279  0.87168272     0.64300
H470        H  0.41360241  0.46544186  0.91455257     0.12100
N471        N  0.47675666  0.37125845  0.93784016     0.60900
H472        H  0.43401660  0.34096150  0.89482395     0.08300
O473        O  0.27836446  0.35332169  0.88527950    -0.40500
O474        O  0.29098867  0.30109478  0.89928282    -0.39700
O475        O  0.43834994  0.32218790  0.81796176    -0.39700
O476        O  0.42269462  0.36875217  0.79152718    -0.37400
O477        O  0.47424470  0.36119196  0.97019060    -0.38300
O478        O  0.49691594  0.35709584  0.91718252    -0.34500
O479        O  0.34653970  0.44043887  0.89099340    -0.35900
O480        O  0.37403943  0.44856171  0.84131063    -0.40200
C481        C  0.33528468  0.11180903  0.83893476    -0.13900
C482        C  0.34991982  0.12811283  0.86897048     0.16500
C483        C  0.34611933  0.16397369  0.87453219     0.02800
C484        C  0.32693403  0.18233916  0.85069547    -0.12400
C485        C  0.31160733  0.16566410  0.82109209    -0.03400
C486        C  0.31640961  0.13000954  0.81505261     0.02000
C487        C  0.37170418  0.10766112  0.89139391     0.08900
N488        N  0.36151663  0.18208942  0.90414705     0.65200
H489        H  0.32393890  0.20982144  0.85548912     0.18100
N490        N  0.30486122  0.11238348  0.78308225     0.75700
H491        H  0.33962726  0.08475001  0.83299803     0.09700
C492        C  0.36162702  0.07608761  0.90676825     0.03400
C493        C  0.38376439  0.05615507  0.92505124    -0.05400
C494        C  0.41622050  0.06681647  0.92857280    -0.23700
C495        C  0.42625721  0.09804392  0.91209865     0.12600
C496        C  0.40406139  0.11780880  0.89369201    -0.12900
N497        N  0.32891286  0.06407853  0.90445313     0.64300
H498        H  0.37515704  0.03218243  0.93706929     0.12100
N499        N  0.45865177  0.11064372  0.91367951     0.60900
H500        H  0.41243767  0.14131584  0.88051243     0.08300
O501        O  0.27901118  0.09470011  0.78470517    -0.40500
O502        O  0.32454194  0.10621150  0.75783138    -0.39700
O503        O  0.38564685  0.20152936  0.89795992    -0.39700
O504        O  0.34676668  0.18523811  0.93393956    -0.37400
O505        O  0.46796069  0.12697991  0.94188245    -0.38300
O506        O  0.47308885  0.11598674  0.88404184    -0.34500
O507        O  0.32166256  0.03886269  0.88361214    -0.35900
O508        O  0.30927412  0.07312674  0.92872120    -0.40200
C509        C  0.14197678  0.35129373  0.87900858    -0.13900
C510        C  0.11176133  0.35687550  0.86404222     0.16500
C511        C  0.10439187  0.34323727  0.82933340     0.02800
C512        C  0.12755077  0.32468583  0.80979351    -0.12400
C513        C  0.15845000  0.31951947  0.82433969    -0.03400
C514        C  0.16525180  0.33309069  0.85967245     0.02000
C515        C  0.08874152  0.37790304  0.88500371     0.08900
N516        N  0.07342676  0.34808957  0.81374914     0.65200
H517        H  0.12144471  0.31488458  0.78288727     0.18100
N518        N  0.19634048  0.33100732  0.87559485     0.75700
H519        H  0.14789788  0.36204690  0.90563417     0.09700
C520        C  0.07411888  0.36482913  0.91644990     0.03400
C521        C  0.05596847  0.38634939  0.93869487    -0.05400
C522        C  0.05133451  0.42114350  0.93017212    -0.23700
C523        C  0.06516918  0.43396492  0.89770882     0.12600
C524        C  0.08378220  0.41228506  0.87560092    -0.12900
N525        N  0.07782258  0.32968075  0.92633135     0.64300
H526        H  0.04610486  0.37564817  0.96355829     0.12100
N527        N  0.06201029  0.46913610  0.88761445     0.60900
H528        H  0.09530861  0.42269044  0.85146936     0.08300
O529        O  0.21486237  0.35725362  0.87477285    -0.40500
O530        O  0.20142063  0.30785384  0.89844121    -0.39700
O531        O  0.04922041  0.33198145  0.82627653    -0.39700
O532        O  0.06946364  0.37259800  0.79219665    -0.37400
O533        O  0.08562421  0.48991057  0.89180322    -0.38300
O534        O  0.03921401  0.47712043  0.86704931    -0.34500
O535        O  0.09718497  0.32246814  0.95129798    -0.35900
O536        O  0.05761225  0.30706890  0.91520942    -0.40200
C537        C  0.35673935  0.41651299  0.58648361    -0.13900
C538        C  0.36617551  0.40403777  0.62021074     0.16500
C539        C  0.39796216  0.40999597  0.63216111     0.02800
C540        C  0.42001227  0.42746606  0.60993763    -0.12400
C541        C  0.41118624  0.43900389  0.57537756    -0.03400
C542        C  0.37882057  0.43389703  0.56398997     0.02000
C543        C  0.34370942  0.38190769  0.64112552     0.08900
N544        N  0.40862454  0.39682369  0.66601368     0.65200
H545        H  0.44458426  0.43102125  0.61951538     0.18100
N546        N  0.36823244  0.44465362  0.52912105     0.75700
H547        H  0.33226423  0.41172295  0.57703843     0.09700
C548        C  0.32537059  0.39522672  0.66993136     0.03400
C549        C  0.30684777  0.37279832  0.69132154    -0.05400
C550        C  0.30613473  0.33690717  0.68459844    -0.23700
C551        C  0.32307772  0.32395802  0.65407688     0.12600
C552        C  0.34181410  0.34651286  0.63294433    -0.12900
N553        N  0.32571752  0.43138754  0.67812905     0.64300
H554        H  0.29355351  0.38364926  0.71402244     0.12100
N555        N  0.32253707  0.28801057  0.64476858     0.60900
H556        H  0.35564028  0.33617979  0.61036976     0.08300
O557        O  0.35315808  0.47233476  0.52658040    -0.40500
O558        O  0.36807853  0.42346847  0.50268064    -0.39700
O559        O  0.42249102  0.36827110  0.66645945    -0.39700
O560        O  0.41029752  0.41658482  0.69359389    -0.37400
O561        O  0.30185398  0.27623561  0.62241301    -0.38300
O562        O  0.34656391  0.27021510  0.65212153    -0.34500
O563        O  0.30355046  0.44958338  0.66601932    -0.35900
O564        O  0.34342746  0.44329089  0.70345206    -0.40200
O565        O  0.43172679  0.96827060  0.01639446    -0.79700
O566        O  0.05571588  0.52581034  0.04395484    -0.79700
O567        O  0.03056542  0.95163413  0.06024395    -0.79700
O568        O  0.47708943  0.57443646  0.02792620    -0.79600
O569        O  0.06756898  0.96527828  0.02009272    -0.79800
O570        O  0.44953726  0.52948704  0.04355746    -0.79700
O571        O  0.03654106  0.57301392  0.02565520    -0.79700
O572        O  0.46719381  0.95288748  0.05640981    -0.79700
C573        C  0.43821070  0.95414049  0.04627435     1.10000
C574        C  0.05496277  0.55769735  0.04665256     1.09900
C575        C  0.05981647  0.95278791  0.05082056     1.10100
C576        C  0.45654382  0.56076634  0.04844232     1.09900
O577        O  0.42201065  0.52014270  0.47326100    -0.79700
O578        O  0.03692265  0.97367678  0.44996258    -0.79700
O579        O  0.46437045  0.93195786  0.48853341    -0.79700
O580        O  0.03829548  0.54164211  0.44830016    -0.79600
O581        O  0.08372736  0.52106991  0.46941977    -0.79700
O582        O  0.46420595  0.97802457  0.45517948    -0.79700
O583        O  0.46679180  0.54156530  0.44826397    -0.79600
O584        O  0.03202740  0.92875853  0.48459423    -0.79700
Co585      Co  0.46021272  0.00505905  0.99412884     1.51500
Co586      Co  0.04713295  0.50075658  0.49274701     1.51700
Co587      Co  0.50049181  0.94485892  0.01908970     1.51600
Co588      Co  0.50278748  0.54840882  0.48764096     1.51500
O589        O  0.50322717  0.99777062  0.01090123    -1.41600
C590        C  0.43559066  0.53922877  0.44980577     1.10000
C591        C  0.03927193  0.94154512  0.45403529     1.10100
C592        C  0.45912275  0.94586831  0.45830478     1.10000
C593        C  0.06949165  0.54201262  0.44890344     1.10000
O594        O  0.31880688  0.78553172  0.27230074    -0.79700
O595        O  0.18606828  0.72052938  0.26493253    -0.79700
O596        O  0.21535008  0.80166855  0.30756280    -0.79700
O597        O  0.27311121  0.67046765  0.27579484    -0.79600
O598        O  0.17933415  0.79016572  0.26495771    -0.79800
O599        O  0.29887889  0.71898592  0.29122013    -0.79700
O600        O  0.22762545  0.71428251  0.30142470    -0.79700
O601        O  0.28116260  0.79800177  0.31042780    -0.79700
C602        C  0.31050129  0.79929806  0.30203576     1.10000
C603        C  0.19791682  0.71002918  0.29479046     1.09900
C604        C  0.18645457  0.80140381  0.29685225     1.10100
C605        C  0.29434872  0.68590695  0.29494282     1.09900
O606        O  0.33182075  0.73158368  0.22983511    -0.79700
O607        O  0.21312706  0.79407844  0.19585140    -0.79700
O608        O  0.28447443  0.82643723  0.23670736    -0.79700
O609        O  0.22485789  0.68419649  0.23032856    -0.79600
O610        O  0.21788407  0.72518119  0.19255024    -0.79700
O611        O  0.29178498  0.77976160  0.20236615    -0.79700
O612        O  0.28717363  0.70381972  0.21385451    -0.79600
O613        O  0.21961279  0.83425383  0.23781404    -0.79700
Co614      Co  0.29239780  0.74993276  0.24513385     1.51500
Co615      Co  0.20192244  0.75752486  0.23013249     1.51700
Co616      Co  0.25020381  0.81165559  0.27267379     1.51600
Co617      Co  0.25701456  0.71248372  0.25939415     1.51500
O618        O  0.24629137  0.76238588  0.25234138    -1.41600
C619        C  0.31813822  0.70785957  0.21123353     1.10000
C620        C  0.21099073  0.82514784  0.20580225     1.10100
C621        C  0.29422867  0.81219377  0.20719547     1.10000
C622        C  0.21484138  0.69380463  0.19983669     1.10000
C623        C  0.12275904  0.57989593  0.11318291    -0.13900
C624        C  0.12001537  0.61553688  0.11711652     0.16500
C625        C  0.09532575  0.63216972  0.09850727     0.02800
C626        C  0.07379754  0.61278351  0.07659875    -0.12400
C627        C  0.07667446  0.57692335  0.07230033    -0.03400
C628        C  0.10168764  0.56055057  0.09103854     0.02000
C629        C  0.14490217  0.63483605  0.13834470     0.08900
N630        N  0.09184300  0.66867094  0.10151740     0.65200
H631        H  0.05498972  0.62606962  0.06241752     0.18100
N632        N  0.10750228  0.52466039  0.08648552     0.75700
H633        H  0.14239789  0.56700015  0.12634667     0.09700
C634        C  0.15161272  0.62667633  0.17472622     0.03400
C635        C  0.17636124  0.64442190  0.19338790    -0.05400
C636        C  0.19456161  0.67063285  0.17656912    -0.23700
C637        C  0.18923628  0.67696108  0.13931576     0.12600
C638        C  0.16450365  0.65914506  0.12072078    -0.12900
N639        N  0.13256511  0.60152023  0.19357353     0.64300
H640        H  0.18007552  0.63891942  0.22189604     0.12100
N641        N  0.20923833  0.70034689  0.11938885     0.60900
H642        H  0.16087906  0.66403042  0.09205641     0.08300
O643        O  0.10230695  0.50499881  0.11295843    -0.40500
O644        O  0.12990123  0.51144122  0.56957441    -0.39700
O645        O  0.10084366  0.68752955  0.07558984    -0.39700
O646        O  0.07350683  0.68079262  0.12559354    -0.37400
O647        O  0.22958757  0.68799876  0.09771965    -0.38300
O648        O  0.19904213  0.72999438  0.11342995    -0.34500
O649        O  0.14506930  0.57386008  0.20337377    -0.35900
O650        O  0.10553477  0.60961716  0.20616756    -0.40200
C651        C  0.16794279  0.65920819  0.37660422    -0.13900
C652        C  0.14488896  0.63697067  0.36012307     0.16500
C653        C  0.13795587  0.64079410  0.32293132     0.02800
C654        C  0.15421017  0.66613367  0.30287448    -0.12400
C655        C  0.17800703  0.68775089  0.31888522    -0.03400
C656        C  0.18452745  0.68444305  0.35638550     0.02000
C657        C  0.12613378  0.61191868  0.38241482     0.08900
N658        N  0.11544020  0.61800538  0.30477298     0.65200
H659        H  0.14912531  0.66777244  0.27397368     0.18100
N660        N  0.20660924  0.70761549  0.37468119     0.75700
H661        H  0.17265509  0.65740470  0.40556665     0.09700
C662        C  0.14072085  0.58480227  0.40077158     0.03400
C663        C  0.12188282  0.56186327  0.42150991    -0.05400
C664        C  0.08844349  0.56555651  0.42481177    -0.23700
C665        C  0.07413807  0.59333542  0.40688027     0.12600
C666        C  0.09292371  0.61580992  0.38578927    -0.12900
N667        N  0.17454188  0.57990696  0.39814522     0.64300
H668        H  0.13365293  0.54110202  0.43529077     0.12100
N669        N  0.04099199  0.60070355  0.41173624     0.60900
H670        H  0.08152087  0.63719635  0.37262591     0.08300
O671        O  0.23386949  0.69723554  0.38387487    -0.40500
O672        O  0.19636672  0.73520394  0.38856353    -0.39700
O673        O  0.08938532  0.62951153  0.29307090    -0.39700
O674        O  0.12398626  0.58829283  0.29489114    -0.37400
O675        O  0.02118605  0.59292431  0.38676157    -0.38300
O676        O  0.03300416  0.62122690  0.43695142    -0.34500
O677        O  0.19253490  0.58907611  0.42436920    -0.35900
O678        O  0.18527972  0.56041990  0.37341753    -0.40400
C679        C  0.16575158  0.86198879  0.12573835    -0.13900
C680        C  0.15891669  0.89495571  0.13869638     0.16500
C681        C  0.17142152  0.90637656  0.17242883     0.02800
C682        C  0.18959076  0.88396997  0.19344523    -0.12400
C683        C  0.19539363  0.84999720  0.18116795    -0.03400
C684        C  0.18350939  0.83954460  0.14644118     0.02000
C685        C  0.13507854  0.91453015  0.11838064     0.08900
N686        N  0.16550208  0.94049330  0.18565965     0.65200
H687        H  0.19837586  0.89288280  0.21968608     0.18100
N688        N  0.18694681  0.80535494  0.13250123     0.75700
H689        H  0.15566574  0.85282999  0.10012197     0.09700
C690        C  0.14135116  0.92494625  0.08263138     0.03400
C691        C  0.11639267  0.93653279  0.06105904    -0.05400
C692        C  0.08500719  0.93915309  0.07483435    -0.23700
C693        C  0.07891240  0.92938254  0.11124160     0.12600
C694        C  0.10394788  0.91712782  0.13249964    -0.12900
N695        N  0.17316204  0.92433560  0.06809098     0.64300
H696        H  0.12187824  0.94409363  0.03344565     0.12100
N697        N  0.04761723  0.93148228  0.12710720     0.60900
H698        H  0.09879535  0.90840200  0.15980281     0.08300
O699        O  0.20735905  0.80013025  0.10777072    -0.40500
O700        O  0.16410999  0.78373885  0.13689907    -0.39700
O701        O  0.14474486  0.94510365  0.21015062    -0.39700
O702        O  0.17768915  0.96616730  0.16951610    -0.37400
O703        O  0.02922100  0.90507110  0.12690251    -0.38300
O704        O  0.04137981  0.95658945  0.14799598    -0.34500
O705        O  0.18054536  0.90087555  0.04565182    -0.35900
O706        O  0.19146800  0.95061607  0.07197379    -0.40200
C707        C  0.42680516  0.63567861  0.10717564    -0.13900
C708        C  0.39987606  0.62025286  0.12388528     0.16500
C709        C  0.39293381  0.58494653  0.11724047     0.02800
C710        C  0.41266827  0.56589818  0.09406291    -0.12400
C711        C  0.43913520  0.58138849  0.07631511    -0.03400
C712        C  0.44638990  0.61675913  0.08355798     0.02000
C713        C  0.37865963  0.64173548  0.14692381     0.08900
N714        N  0.36585585  0.56804521  0.13375457     0.65200
H715        H  0.40663345  0.53880024  0.08926429     0.18100
N716        N  0.47314288  0.63411628  0.06687078     0.75700
H717        H  0.43224437  0.66295465  0.11180103     0.09700
C718        C  0.39053755  0.65957728  0.17797799     0.03400
C719        C  0.37036763  0.68101456  0.19802634    -0.05400
C720        C  0.33815326  0.68529660  0.18791396    -0.23700
C721        C  0.32635406  0.66761129  0.15667686     0.12600
C722        C  0.34660488  0.64612674  0.13649981    -0.12900
N723        N  0.42283986  0.65556251  0.19002815     0.64300
H724        H  0.38000325  0.69405578  0.22217338     0.12100
N725        N  0.29491217  0.67348464  0.14325027     0.60900
H726        H  0.33748155  0.63359115  0.11183421     0.08300
O727        O  0.46728371  0.65389270  0.53530053    -0.40500
O728        O  0.42727209  0.63378416  0.50235824    -0.39700
O729        O  0.34024081  0.56351314  0.11574636    -0.39700
O730        O  0.36983817  0.55108744  0.16230529    -0.37400
O731        O  0.29148265  0.69612276  0.11942988    -0.38300
O732        O  0.27282844  0.65110675  0.14815023    -0.34500
O733        O  0.44338587  0.67955156  0.18504778    -0.35900
O734        O  0.42883948  0.63217063  0.21228693    -0.40200
C735        C  0.34871878  0.86448069  0.36903011    -0.13900
C736        C  0.38107425  0.86362205  0.35886753     0.16500
C737        C  0.39045147  0.83973418  0.33183332     0.02800
C738        C  0.36730761  0.81800134  0.31490492    -0.12400
C739        C  0.33456470  0.81951972  0.32422907    -0.03400
C740        C  0.32552491  0.84300801  0.35204182     0.02000
C741        C  0.40476812  0.88566227  0.37928815     0.08900
N742        N  0.42317787  0.83817682  0.32033392     0.65200
H743        H  0.37505336  0.80037077  0.29349077     0.18100
N744        N  0.29274369  0.84705755  0.36202898     0.75700
H745        H  0.34127985  0.88211470  0.39061333     0.09700
C746        C  0.40239883  0.92191305  0.38131792     0.03400
C747        C  0.42199108  0.94125550  0.40547819    -0.05400
C748        C  0.44340228  0.92508540  0.42876858    -0.23700
C749        C  0.44646155  0.88877859  0.42577879     0.12600
C750        C  0.42749837  0.86969563  0.40084594    -0.12900
N751        N  0.37940096  0.93933646  0.35998674     0.64300
H752        H  0.41904734  0.96901252  0.40743495     0.12100
N753        N  0.46796938  0.87051538  0.44832682     0.60900
H754        H  0.42919771  0.84174514  0.39994188     0.08300
O755        O  0.27829967  0.87306263  0.35088727    -0.40500
O756        O  0.28150137  0.83059703  0.38869268    -0.39700
O757        O  0.43976529  0.81290496  0.32933419    -0.39700
O758        O  0.43315240  0.85774627  0.29544588    -0.37400
O759        O  0.45846062  0.86091456  0.47922694    -0.38300
O760        O  0.49103936  0.85515371  0.43352880    -0.34500
O761        O  0.35427086  0.95028130  0.37498525    -0.35900
O762        O  0.38758403  0.95069036  0.32930905    -0.40200
C763        C  0.32398660  0.61358514  0.35394128    -0.13900
C764        C  0.35491679  0.62585971  0.36332761     0.16500
C765        C  0.36534797  0.65862573  0.35104754     0.02800
C766        C  0.34479184  0.67835897  0.33005621    -0.12400
C767        C  0.31384790  0.66600136  0.32059554    -0.03400
C768        C  0.30339553  0.63322470  0.33313594     0.02000
C769        C  0.37588242  0.60369004  0.38530680     0.08900
N770        N  0.39667553  0.67229257  0.35974775     0.65200
H771        H  0.35348230  0.70322832  0.32032002     0.18100
N772        N  0.27187241  0.61948717  0.32532812     0.75700
H773        H  0.31578022  0.58812340  0.36244897     0.09700
C774        C  0.36499191  0.58974459  0.41842854     0.03400
C775        C  0.38449429  0.56780480  0.43775834    -0.05400
C776        C  0.41511564  0.55909859  0.42513391    -0.23700
C777        C  0.42579577  0.57219568  0.39146173     0.12600
C778        C  0.40615947  0.59435057  0.37200931    -0.12900
N779        N  0.33453933  0.59845423  0.43350489     0.64300
H780        H  0.37583045  0.55844308  0.46379977     0.12100
N781        N  0.45550562  0.56186508  0.37569108     0.60900
H782        H  0.41426139  0.60351128  0.34567676     0.08300
O783        O  0.24994886  0.62264626  0.34877382    -0.40500
O784        O  0.26801526  0.59785710  0.29956559    -0.39700
O785        O  0.41826126  0.67251758  0.33563139    -0.39700
O786        O  0.40062547  0.69052042  0.38821357    -0.37400
O787        O  0.47702105  0.58441335  0.36901158    -0.38300
O788        O  0.45703986  0.53243487  0.36068200    -0.34500
O789        O  0.31215420  0.57584807  0.43410273    -0.35900
O790        O  0.33255755  0.62510655  0.45346311    -0.40200
C791        C  0.14453619  0.85028274  0.37401232    -0.13900
C792        C  0.11373640  0.85380878  0.35973547     0.16500
C793        C  0.10604952  0.83824638  0.32598079     0.02800
C794        C  0.12958674  0.82025967  0.30645008    -0.12400
C795        C  0.16108499  0.81733512  0.32020592    -0.03400
C796        C  0.16808057  0.83234392  0.35487019     0.02000
C797        C  0.09044494  0.87464625  0.38051002     0.08900
N798        N  0.07434564  0.84037031  0.31145932     0.65200
H799        H  0.12325324  0.80907561  0.28018684     0.18100
N800        N  0.19941537  0.83162579  0.37045687     0.75700
H801        H  0.15061559  0.86228766  0.40001536     0.09700
C802        C  0.07735249  0.86238919  0.41314020     0.03400
C803        C  0.05948929  0.88421278  0.43535926    -0.05400
C804        C  0.05409541  0.91867830  0.42598202    -0.23700
C805        C  0.06595526  0.93046094  0.39215506     0.12600
C806        C  0.08403409  0.90838470  0.36985705    -0.12900
N807        N  0.08287876  0.82801855  0.42461925     0.64300
H808        H  0.05086180  0.87416981  0.46107765     0.12100
N809        N  0.06098012  0.96490162  0.38056698     0.60900
H810        H  0.09419224  0.91808949  0.34466960     0.08300
O811        O  0.21669421  0.85881759  0.37009437    -0.40500
O812        O  0.20551288  0.80867382  0.39316759    -0.39700
O813        O  0.05167787  0.82251275  0.32497763    -0.39700
O814        O  0.06809021  0.86385814  0.28941514    -0.37400
O815        O  0.08333333  0.98732221  0.38427349    -0.38300
O816        O  0.03787701  0.97064864  0.35950114    -0.34500
O817        O  0.10518545  0.82265582  0.44688392    -0.35900
O818        O  0.06191065  0.80458539  0.41826554    -0.40200
C819        C  0.36313183  0.90357551  0.07542686    -0.13900
C820        C  0.36846607  0.90127820  0.11289674     0.16500
C821        C  0.39577096  0.91791029  0.12845164     0.02800
C822        C  0.41738698  0.93616693  0.10638548    -0.12400
C823        C  0.41265392  0.93785924  0.06869833    -0.03400
C824        C  0.38495643  0.92157386  0.05317879     0.02000
C825        C  0.34721291  0.87862895  0.13477987     0.08900
N826        N  0.40312122  0.91438814  0.16612781     0.65200
H827        H  0.43867274  0.94821399  0.11874754     0.18100
N828        N  0.38003242  0.92049160  0.01471476     0.75700
H829        H  0.34248450  0.89016212  0.06317606     0.09700
C830        C  0.32449089  0.89211373  0.15910439     0.03400
C831        C  0.30666455  0.86984023  0.18136423    -0.05400
C832        C  0.31090569  0.83398016  0.17985664    -0.23700
C833        C  0.33277211  0.82041259  0.15411359     0.12600
C834        C  0.35065215  0.84284536  0.13198490    -0.12900
N835        N  0.31902305  0.92831218  0.16126990     0.64300
H836        H  0.28958811  0.88085379  0.20034201     0.12100
N837        N  0.33838226  0.78424848  0.15118776     0.60900
H838        H  0.36805947  0.83228795  0.11309510     0.08300
O839        O  0.35940046  0.93958855  0.00084935    -0.40500
O840        O  0.39072573  0.89559556  0.99621178    -0.39700
O841        O  0.42031976  0.88984583  0.17583955    -0.39700
O842        O  0.39945299  0.93971594  0.18758543    -0.37400
O843        O  0.32471642  0.76665637  0.12619916    -0.38300
O844        O  0.36207439  0.77199452  0.16749731    -0.34500
O845        O  0.29665277  0.94055081  0.14272311    -0.35900
O846        O  0.33062004  0.94585133  0.18756461    -0.40200
O847        O  0.42932808  0.97081494  0.52327957    -0.79700
O848        O  0.06039616  0.52300008  0.53878037    -0.79700
O849        O  0.03724629  0.95283027  0.55906661    -0.79700
O850        O  0.47223877  0.57232532  0.52058614    -0.79600
O851        O  0.07297575  0.96466087  0.51717370    -0.79800
O852        O  0.44753657  0.52742474  0.54077812    -0.79700
O853        O  0.04034197  0.57019154  0.52169956    -0.79700
O854        O  0.46474316  0.95565317  0.56349195    -0.79700
C855        C  0.43571053  0.95703321  0.55338465     1.10000
C856        C  0.05867083  0.55477075  0.54262072     1.09900
C857        C  0.06596719  0.95192051  0.54794178     1.10100
C858        C  0.45249645  0.55928125  0.54241709     1.09900
O859        O  0.42328993  0.52404039  0.97683681    -0.79700
O860        O  0.03371333  0.97261963  0.95071938    -0.79700
O861        O  0.46809178  0.93093395  0.98076444    -0.79700
O862        O  0.03470089  0.54335835  0.95279140    -0.79600
O863        O  0.07931676  0.52196596  0.97506500    -0.79700
O864        O  0.46672972  0.97770795  0.94868574    -0.79700
O865        O  0.46767675  0.54865250  0.95394968    -0.79600
O866        O  0.02944281  0.92792422  0.98556207    -0.79700
Co867      Co  0.45793938  0.00654834  0.49989700     1.51500
Co868      Co  0.04215882  0.50325191  0.99845015     1.51700
Co869      Co  0.49741200  0.94591742  0.52595860     1.51600
Co870      Co  0.50548938  0.55192281  0.99140833     1.51500
O871        O  0.50090229  0.99868808  0.51661555    -1.41600
C872        C  0.43650624  0.54551700  0.95554619     1.10000
C873        C  0.03745489  0.94082644  0.95532293     1.10100
C874        C  0.46163989  0.94550841  0.95117720     1.10000
C875        C  0.06589785  0.54268075  0.95368740     1.10000
O876        O  0.31773897  0.78296345  0.77071764    -0.79700
O877        O  0.18548362  0.71774562  0.76847259    -0.79700
O878        O  0.21529564  0.79780120  0.80991453    -0.79700
O879        O  0.27326148  0.66723802  0.77444517    -0.79600
O880        O  0.17849982  0.78779461  0.76798753    -0.79800
O881        O  0.29929818  0.71599817  0.78887057    -0.79700
O882        O  0.22819047  0.71042035  0.80311505    -0.79700
O883        O  0.28126757  0.79410653  0.81089981    -0.79700
C884        C  0.31018999  0.79653145  0.80089686     1.10000
C885        C  0.19823009  0.70658146  0.79762485     1.09900
C886        C  0.18647082  0.79939990  0.79948678     1.10100
C887        C  0.29530932  0.68281550  0.79224934     1.09900
O888        O  0.32947135  0.72975350  0.72575844    -0.79700
O889        O  0.21064797  0.79107605  0.69805385    -0.79700
O890        O  0.28251049  0.82378615  0.73807817    -0.79700
O891        O  0.22321116  0.68112514  0.73223206    -0.79600
O892        O  0.21538964  0.72225617  0.69485885    -0.79700
O893        O  0.28815965  0.77840713  0.70159289    -0.79700
O894        O  0.28456230  0.70111236  0.71287974    -0.79600
O895        O  0.21844148  0.83116325  0.74008486    -0.79700
Co896      Co  0.29075978  0.74759719  0.74368656     1.51500
Co897      Co  0.20023392  0.75466550  0.73287217     1.51700
Co898      Co  0.24932917  0.80829653  0.77446063     1.51600
Co899      Co  0.25617957  0.70934833  0.75982272     1.51500
O900        O  0.24502565  0.75931682  0.75370650    -1.41600
C901        C  0.31526111  0.70560159  0.70819708     1.10000
C902        C  0.21053414  0.82241017  0.70770284     1.10100
C903        C  0.29050093  0.81074741  0.70736648     1.10000
C904        C  0.21291281  0.69080809  0.70196325     1.10000
C905        C  0.12167636  0.57710706  0.61493110    -0.13900
C906        C  0.12006345  0.61297300  0.61678477     0.16500
C907        C  0.09739660  0.62966870  0.59523819     0.02800
C908        C  0.07697470  0.61016121  0.57219025    -0.12400
C909        C  0.07890498  0.57405976  0.56972879    -0.03400
C910        C  0.10166259  0.55761536  0.59170893     0.02000
C911        C  0.14442135  0.63226847  0.63870681     0.08900
N912        N  0.09502046  0.66636856  0.59623574     0.65200
H913        H  0.05998879  0.62359766  0.55543014     0.18100
N914        N  0.10683508  0.52151833  0.58893927     0.75700
H915        H  0.13983128  0.56406700  0.63050046     0.09700
C916        C  0.14850714  0.62580237  0.67600020     0.03400
C917        C  0.17298940  0.64312776  0.69539752    -0.05400
C918        C  0.19323235  0.66749278  0.67851425    -0.23700
C919        C  0.19033583  0.67243794  0.64068586     0.12600
C920        C  0.16603919  0.65475879  0.62123274    -0.12900
N921        N  0.12691343  0.60313249  0.69491979     0.64300
H922        H  0.17482443  0.63901802  0.72451866     0.12100
N923        N  0.21193691  0.69487935  0.62147462     0.60900
H924        H  0.16420857  0.65842930  0.59204950     0.08300
O925        O  0.09602727  0.50226259  0.61367407    -0.40500
O926        O  0.12632861  0.51523130  0.06153970    -0.39700
O927        O  0.10604923  0.68375404  0.57011735    -0.39700
O928        O  0.07593067  0.68019185  0.61842805    -0.37400
O929        O  0.23556686  0.68213564  0.60507674    -0.38300
O930        O  0.20200465  0.72352806  0.61124039    -0.34500
O931        O  0.13687228  0.57490540  0.70658348    -0.35900
O932        O  0.10049850  0.61432970  0.70634879    -0.40200
C933        C  0.16956242  0.65457515  0.87950616    -0.13900
C934        C  0.14500947  0.63374640  0.86370116     0.16500
C935        C  0.13715250  0.63873689  0.82681350     0.02800
C936        C  0.15364562  0.66390960  0.80676435    -0.12400
C937        C  0.17876464  0.68412302  0.82212392    -0.03400
C938        C  0.18659310  0.67939340  0.85911422     0.02000
C939        C  0.12552027  0.60950000  0.88652438     0.08900
N940        N  0.11314408  0.61759200  0.80887581     0.65200
H941        H  0.14751470  0.66657616  0.77823346     0.18100
N942        N  0.21068448  0.70057781  0.87681556     0.75700
H943        H  0.17503950  0.65224393  0.90822320     0.09700
C944        C  0.13934709  0.58396575  0.90810390     0.03400
C945        C  0.11958159  0.56200829  0.92900956    -0.05400
C946        C  0.08592715  0.56488171  0.92919143    -0.23700
C947        C  0.07240929  0.59082043  0.90789672     0.12600
C948        C  0.09209074  0.61269638  0.88721086    -0.12900
N949        N  0.17331905  0.57966301  0.90885497     0.64300
H950        H  0.13082822  0.54266367  0.94541341     0.12100
N951        N  0.03872828  0.59626418  0.90771688     0.60900
H952        H  0.08100576  0.63295476  0.87190714     0.08300
O953        O  0.23717028  0.68774171  0.88523713    -0.40500
O954        O  0.20296502  0.72908628  0.89092546    -0.39700
O955        O  0.08773443  0.63101706  0.79774695    -0.39700
O956        O  0.12006352  0.58769410  0.79784609    -0.37400
O957        O  0.02209033  0.58475043  0.88130844    -0.38300
O958        O  0.02736009  0.61870569  0.92900321    -0.34500
O959        O  0.18921658  0.59083479  0.93599838    -0.35900
O960        O  0.18570728  0.55789331  0.88755906    -0.40400
C961        C  0.17773741  0.86286363  0.62201179    -0.13900
C962        C  0.16510171  0.89325290  0.63606356     0.16500
C963        C  0.17094627  0.90262237  0.67263744     0.02800
C964        C  0.18752138  0.88026614  0.69528588    -0.12400
C965        C  0.19827270  0.84830033  0.68188588    -0.03400
C966        C  0.19398682  0.84037457  0.64438331     0.02000
C967        C  0.14058921  0.91055348  0.61432477     0.08900
N968        N  0.15905730  0.93421385  0.68726935     0.65200
H969        H  0.19057686  0.88722310  0.72366814     0.18100
N970        N  0.20261910  0.80791309  0.62909011     0.75700
H971        H  0.17276803  0.85516003  0.59412299     0.09700
C972        C  0.14808239  0.92621516  0.58106919     0.03400
C973        C  0.12341945  0.93853710  0.55931954    -0.05400
C974        C  0.09111274  0.93623554  0.57054360    -0.23700
C975        C  0.08369885  0.91957406  0.60362133     0.12600
C976        C  0.10840721  0.90716243  0.62509230    -0.12900
N977        N  0.18070433  0.93088341  0.56971774     0.64300
H978        H  0.12979064  0.95097562  0.53402717     0.12100
N979        N  0.05124638  0.91361989  0.61519099     0.60900
H980        H  0.10232521  0.89376164  0.64993093     0.08300
O981        O  0.22924369  0.80534870  0.61297143    -0.40500
O982        O  0.18055253  0.78569603  0.62280529    -0.39700
O983        O  0.13512975  0.93364623  0.70835067    -0.39700
O984        O  0.16965124  0.96267348  0.67537082    -0.37400
O985        O  0.03651408  0.88610758  0.60548497    -0.38300
O986        O  0.03987018  0.93199104  0.64048989    -0.34500
O987        O  0.19200952  0.91107456  0.54562771    -0.35900
O988        O  0.19587678  0.95843545  0.57832319    -0.40200
C989        C  0.41095857  0.63570372  0.58640084    -0.13900
C990        C  0.39582157  0.62027900  0.61631969     0.16500
C991        C  0.39983562  0.58469957  0.62197792     0.02800
C992        C  0.41889173  0.56554356  0.59805936    -0.12400
C993        C  0.43423769  0.58105648  0.56825540    -0.03400
C994        C  0.43006131  0.61666467  0.56253624     0.02000
C995        C  0.37512063  0.64167226  0.64021862     0.08900
N996        N  0.38493020  0.56761338  0.65195240     0.65200
H997        H  0.42160481  0.53820581  0.60286295     0.18100
N998        N  0.44331523  0.63352637  0.53145852     0.75700
H999        H  0.40712399  0.66269340  0.58079949     0.09700
C1000       C  0.38692393  0.67290780  0.65593553     0.03400
C1001       C  0.36660895  0.69344409  0.67673100    -0.05400
C1002       C  0.33430097  0.68366691  0.68296049    -0.23700
C1003       C  0.32236298  0.65237830  0.66704100     0.12600
C1004       C  0.34272149  0.63200821  0.64562329    -0.12900
N1005       N  0.41986566  0.68365766  0.65210602     0.64300
H1006       H  0.37667025  0.71712346  0.68873204     0.12100
N1007       N  0.28997899  0.64047759  0.67263253     0.60900
H1008       H  0.33303005  0.60846541  0.63296109     0.08300
O1009       O  0.49968279  0.63630426  0.08343809    -0.40500
O1010       O  0.46840313  0.65343779  0.04023810    -0.39700
O1011       O  0.36126196  0.54722453  0.64617678    -0.39700
O1012       O  0.39978932  0.56636077  0.68177034    -0.37400
O1013       O  0.27042450  0.64100298  0.64652678    -0.38300
O1014       O  0.28357552  0.62137760  0.69922544    -0.34500
O1015       O  0.42705134  0.70854195  0.63168302    -0.35900
O1016       O  0.44016875  0.67399730  0.67501080    -0.40200
C1017       C  0.35125947  0.85382588  0.87348465    -0.13900
C1018       C  0.37742624  0.86760374  0.85400999     0.16500
C1019       C  0.38178514  0.85725968  0.81756112     0.02800
C1020       C  0.36011107  0.83342685  0.80129430    -0.12400
C1021       C  0.33381664  0.81938709  0.82069424    -0.03400
C1022       C  0.32953286  0.82994426  0.85731215     0.02000
C1023       C  0.40219847  0.88841185  0.87404219     0.08900
N1024       N  0.40852743  0.87007116  0.79700737     0.65200
H1025       H  0.36379236  0.82617160  0.77292231     0.18100
N1026       N  0.30402561  0.81584816  0.87889184     0.75700
H1027       H  0.34819551  0.86100525  0.90198702     0.09700
C1028       C  0.40355648  0.92477735  0.87388722     0.03400
C1029       C  0.42465146  0.94295904  0.89759128    -0.05400
C1030       C  0.44424789  0.92548662  0.92202898    -0.23700
C1031       C  0.44379923  0.88885405  0.92058606     0.12600
C1032       C  0.42302210  0.87096774  0.89662654    -0.12900
N1033       N  0.38248700  0.94359965  0.85140504     0.64300
H1034       H  0.42435919  0.97098661  0.89819123     0.12100
N1035       N  0.46376124  0.86905015  0.94346870     0.60900
H1036       H  0.42220858  0.84290990  0.89670618     0.08300
O1037       O  0.28076166  0.83456857  0.88735224    -0.40500
O1038       O  0.30857906  0.78876050  0.89651959    -0.39700
O1039       O  0.43336941  0.85224283  0.79422871    -0.39700
O1040       O  0.40458939  0.89450749  0.77536135    -0.37400
O1041       O  0.45381513  0.86136101  0.97479880    -0.38300
O1042       O  0.48490015  0.85069100  0.92879021    -0.34500
O1043       O  0.35730874  0.95581996  0.86506220    -0.35900
O1044       O  0.39272905  0.95500286  0.82151679    -0.40200
C1045       C  0.34070531  0.60991781  0.83427325    -0.13900
C1046       C  0.35122106  0.62497278  0.86711829     0.16500
C1047       C  0.34400179  0.65984928  0.87480359     0.02800
C1048       C  0.32630465  0.67856812  0.84980733    -0.12400
C1049       C  0.31513651  0.66305795  0.81739285    -0.03400
C1050       C  0.32266525  0.62832236  0.80965082     0.02000
C1051       C  0.37227472  0.60473430  0.89085684     0.08900
N1052       N  0.35372730  0.67638882  0.90817183     0.65200
H1053       H  0.32062477  0.70520615  0.85621698     0.18100
N1054       N  0.31379374  0.61181242  0.77599204     0.75700
H1055       H  0.34738441  0.58376186  0.82703365     0.09700
C1056       C  0.36365946  0.57097514  0.90185378     0.03400
C1057       C  0.38539990  0.55188520  0.92176875    -0.05400
C1058       C  0.41572801  0.56577250  0.93162821    -0.23700
C1059       C  0.42422670  0.59967238  0.92075699     0.12600
C1060       C  0.40277198  0.61827920  0.89991336    -0.12900
N1061       N  0.33263363  0.55601418  0.89392077     0.64300
H1062       H  0.37819954  0.52602386  0.93008437     0.12100
N1063       N  0.45344521  0.61664695  0.93241078     0.60900
H1064       H  0.41000891  0.64390143  0.89091746     0.08300
O1065       O  0.28983726  0.59115244  0.77516695    -0.40500
O1066       O  0.33422000  0.61060685  0.75065866    -0.39700
O1067       O  0.37609269  0.69902320  0.90785810    -0.39700
O1068       O  0.33514114  0.67492015  0.93524234    -0.37400
O1069       O  0.45703967  0.62427117  0.96566581    -0.38300
O1070       O  0.47054490  0.63236017  0.90932206    -0.34500
O1071       O  0.33005696  0.53208897  0.87031242    -0.35900
O1072       O  0.30997480  0.56046407  0.91617484    -0.40200
C1073       C  0.14874065  0.85429745  0.87495786    -0.13900
C1074       C  0.11725188  0.85698347  0.86234375     0.16500
C1075       C  0.10820460  0.84032894  0.82956164     0.02800
C1076       C  0.13068998  0.82096380  0.80997188    -0.12400
C1077       C  0.16257313  0.81809038  0.82244047    -0.03400
C1078       C  0.17143055  0.83554196  0.85533209     0.02000
C1079       C  0.09430598  0.87740145  0.88403396     0.08900
N1080       N  0.07620545  0.84289810  0.81598152     0.65200
H1081       H  0.12317978  0.80845641  0.78474496     0.18100
N1082       N  0.20373876  0.83632040  0.86838189     0.75700
H1083       H  0.15598332  0.86757839  0.89990993     0.09700
C1084       C  0.08311876  0.86527807  0.91759195     0.03400
C1085       C  0.06388617  0.88599584  0.93943662    -0.05400
C1086       C  0.05492470  0.91903096  0.92853000    -0.23700
C1087       C  0.06529009  0.93075215  0.89408874     0.12600
C1088       C  0.08495811  0.90990838  0.87229040    -0.12900
N1089       N  0.09108974  0.83177444  0.92979687     0.64300
H1090       H  0.05631066  0.87603980  0.96561096     0.12100
N1091       N  0.05645478  0.96366312  0.88096643     0.60900
H1092       H  0.09350157  0.91943024  0.84629416     0.08300
O1093       O  0.22249458  0.86075552  0.85914848    -0.40500
O1094       O  0.21088229  0.81815767  0.89520325    -0.39700
O1095       O  0.05321555  0.82764715  0.83198945    -0.39700
O1096       O  0.07034316  0.86464506  0.79188320    -0.37400
O1097       O  0.07668945  0.98848746  0.88200483    -0.38300
O1098       O  0.03166744  0.96580144  0.86147148    -0.34500
O1099       O  0.11358818  0.82868748  0.95239830    -0.35900
O1100       O  0.07200882  0.80654329  0.92348859    -0.40200
C1101       C  0.35713647  0.91272838  0.58225760    -0.13900
C1102       C  0.36508309  0.90243880  0.61731034     0.16500
C1103       C  0.39532345  0.91195620  0.63200185     0.02800
C1104       C  0.41731638  0.93101989  0.61124005    -0.12400
C1105       C  0.41000397  0.94056169  0.57557740    -0.03400
C1106       C  0.37920577  0.93165651  0.56125639     0.02000
C1107       C  0.34252867  0.87985005  0.63740224     0.08900
N1108       N  0.40480262  0.90064316  0.66709514     0.65200
H1109       H  0.44077731  0.93740193  0.62283931     0.18100
N1110       N  0.37047578  0.93993590  0.52492028     0.75700
H1111       H  0.33388645  0.90521356  0.57076765     0.09700
C1112       C  0.32467723  0.89253597  0.66689031     0.03400
C1113       C  0.30647294  0.86967702  0.68792567    -0.05400
C1114       C  0.30553745  0.83397692  0.68017171    -0.23700
C1115       C  0.32151313  0.82173058  0.64869220     0.12600
C1116       C  0.34003609  0.84474232  0.62786070    -0.12900
N1117       N  0.32482721  0.92855791  0.67582873     0.64300
H1118       H  0.29360708  0.88007671  0.71118032     0.12100
N1119       N  0.32004765  0.78611187  0.63799015     0.60900
H1120       H  0.35332011  0.83497366  0.60459265     0.08300
O1121       O  0.35317258  0.96559836  0.51949514    -0.40500
O1122       O  0.37433519  0.91801468  0.49963655    -0.39700
O1123       O  0.41876162  0.87228446  0.66973055    -0.39700
O1124       O  0.40645124  0.92213341  0.69321536    -0.37400
O1125       O  0.29936914  0.77584632  0.61488106    -0.38300
O1126       O  0.34342200  0.76722754  0.64494958    -0.34500
O1127       O  0.30403341  0.94727732  0.66169005    -0.35900
O1128       O  0.33991008  0.93955955  0.70361000    -0.40200
O1129       O  0.92778654  0.47027307  0.02565665    -0.79700
O1130       O  0.55951512  0.02365475  0.03982241    -0.79700
O1131       O  0.53444563  0.45306851  0.06150666    -0.79700
O1132       O  0.97021213  0.07257267  0.02291816    -0.79600
O1133       O  0.57147411  0.46555373  0.02102358    -0.79800
O1134       O  0.94493047  0.02749880  0.04223720    -0.79700
O1135       O  0.54151625  0.07131982  0.02153034    -0.79700
O1136       O  0.96424066  0.45526048  0.06461470    -0.79700
C1137       C  0.93494744  0.45626040  0.05541967     1.10000
C1138       C  0.55964104  0.05555311  0.04243196     1.09900
C1139       C  0.56362852  0.45323146  0.05176856     1.10100
C1140       C  0.95041634  0.05931899  0.04462730     1.09900
O1141       O  0.92292261  0.02163538  0.47683075    -0.79700
O1142       O  0.53486887  0.46976359  0.45030047    -0.79700
O1143       O  0.96852755  0.42878350  0.48262192    -0.79700
O1144       O  0.53718278  0.04119967  0.45341759    -0.79600
O1145       O  0.58183613  0.01866882  0.47426924    -0.79700
O1146       O  0.96669964  0.47508914  0.44992618    -0.79700
O1147       O  0.96728983  0.04711249  0.45440083    -0.79600
O1148       O  0.52956789  0.42564237  0.48592328    -0.79700
Co1149     Co  0.95565297  0.50645681  0.00161316     1.51500
Co1150     Co  0.54433179  0.00106159  0.49784484     1.51700
Co1151     Co  0.99658187  0.44666906  0.02630593     1.51600
Co1152     Co  0.00521126  0.05152800  0.49136461     1.51500
O1153       O  0.99900766  0.49943897  0.01702732    -1.41600
C1154       C  0.93619277  0.04316167  0.45557774     1.10000
C1155       C  0.53678615  0.43772660  0.45505202     1.10100
C1156       C  0.96210155  0.44287715  0.45281495     1.10000
C1157       C  0.56829307  0.03969445  0.45333336     1.10000
O1158       O  0.81535601  0.28314610  0.27397551    -0.79700
O1159       O  0.68444612  0.21633793  0.26864312    -0.79700
O1160       O  0.71213013  0.29800380  0.31078307    -0.79700
O1161       O  0.77260498  0.16726424  0.27806894    -0.79600
O1162       O  0.67625720  0.28562368  0.26816982    -0.79800
O1163       O  0.79746509  0.21647331  0.29324352    -0.79700
O1164       O  0.72623870  0.21022580  0.30502705    -0.79700
O1165       O  0.77838629  0.29552265  0.31316600    -0.79700
C1166       C  0.80757409  0.29670772  0.30403929     1.10000
C1167       C  0.69654663  0.20577304  0.29837616     1.09900
C1168       C  0.68319721  0.29705892  0.30003632     1.10100
C1169       C  0.79442438  0.18318600  0.29593608     1.09900
O1170       O  0.82864055  0.22939224  0.23069085    -0.79700
O1171       O  0.70987858  0.28999193  0.19894490    -0.79700
O1172       O  0.78037357  0.32340326  0.23907869    -0.79700
O1173       O  0.72318978  0.18034859  0.23398957    -0.79600
O1174       O  0.71632185  0.22143694  0.19626885    -0.79700
O1175       O  0.78688082  0.27665436  0.20459925    -0.79700
O1176       O  0.78415059  0.20085543  0.21643021    -0.79600
O1177       O  0.71585863  0.33022779  0.24094232    -0.79700
Co1178     Co  0.78927370  0.24708829  0.24735304     1.51500
Co1179     Co  0.69941173  0.25338257  0.23355748     1.51700
Co1180     Co  0.74678567  0.30833681  0.27570014     1.51600
Co1181     Co  0.75508022  0.20907659  0.26267213     1.51500
O1182       O  0.74337898  0.25884177  0.25600520    -1.41600
C1183       C  0.81488212  0.20532222  0.21260229     1.10000
C1184       C  0.70830080  0.32121043  0.20860307     1.10100
C1185       C  0.78906991  0.30910702  0.20916051     1.10000
C1186       C  0.71412973  0.18991798  0.20313642     1.10000
C1187       C  0.62845220  0.07603996  0.10816466    -0.13900
C1188       C  0.62570958  0.11151627  0.11323969     0.16500
C1189       C  0.60111458  0.12875301  0.09515748     0.02800
C1190       C  0.57948580  0.11001054  0.07280585    -0.12400
C1191       C  0.58204468  0.07419433  0.06775806    -0.03400
C1192       C  0.60723873  0.05729175  0.08567969     0.02000
C1193       C  0.65000131  0.13001562  0.13591891     0.08900
N1194       N  0.59767162  0.16516199  0.09944022     0.65200
H1195       H  0.56066882  0.12373772  0.05908647     0.18100
N1196       N  0.61287321  0.02143389  0.08039330     0.75700
H1197       H  0.64809732  0.06277378  0.12096025     0.09700
C1198       C  0.65531873  0.12080521  0.17231270     0.03400
C1199       C  0.67858778  0.13877850  0.19295025    -0.05400
C1200       C  0.69656768  0.16616983  0.17806154    -0.23700
C1201       C  0.69311922  0.17333798  0.14071027     0.12600
C1202       C  0.66980857  0.15532151  0.12013101    -0.12900
N1203       N  0.63602596  0.09460588  0.18925496     0.64300
H1204       H  0.68099032  0.13271943  0.22157175     0.12100
N1205       N  0.71257380  0.19911426  0.12331226     0.60900
H1206       H  0.66711732  0.16120340  0.09149885     0.08300
O1207       O  0.61218149  0.00225446  0.10777308    -0.40500
O1208       O  0.62967520  0.01064648  0.56713215    -0.39700
O1209       O  0.60632312  0.18482234  0.07403575    -0.39700
O1210       O  0.58000221  0.17663246  0.12451155    -0.37400
O1211       O  0.73755892  0.19021587  0.10657388    -0.38300
O1212       O  0.69987934  0.22697632  0.11488659    -0.34500
O1213       O  0.64852456  0.06657622  0.19787176    -0.35900
O1214       O  0.60876901  0.10196653  0.20176190    -0.40200
C1215       C  0.66732677  0.15287923  0.37878558    -0.13900
C1216       C  0.64500634  0.13024399  0.36157880     0.16500
C1217       C  0.63822325  0.13462255  0.32437917     0.02800
C1218       C  0.65395899  0.16080063  0.30513625    -0.12400
C1219       C  0.67705889  0.18273825  0.32188925    -0.03400
C1220       C  0.68347866  0.17889335  0.35931131     0.02000
C1221       C  0.62611581  0.10503195  0.38346325     0.08900
N1222       N  0.61617591  0.11188229  0.30539801     0.65200
H1223       H  0.64905036  0.16286288  0.27624100     0.18100
N1224       N  0.70519051  0.20204841  0.37822628     0.75700
H1225       H  0.67167991  0.15091142  0.40778896     0.09700
C1226       C  0.64059790  0.08003567  0.40509334     0.03400
C1227       C  0.62140923  0.05820769  0.42672074    -0.05400
C1228       C  0.58776762  0.06101029  0.42764796    -0.23700
C1229       C  0.57357455  0.08606820  0.40569595     0.12600
C1230       C  0.59267634  0.10751644  0.38403284    -0.12900
N1231       N  0.67467105  0.07644863  0.40536843     0.64300
H1232       H  0.63307341  0.03935464  0.44337477     0.12100
N1233       N  0.53995797  0.09194344  0.40687212     0.60900
H1234       H  0.58122022  0.12736293  0.36847945     0.08300
O1235       O  0.73275140  0.19203851  0.38676277    -0.40500
O1236       O  0.69449695  0.22896109  0.39316053    -0.39700
O1237       O  0.59005853  0.12332408  0.29377612    -0.39700
O1238       O  0.62565308  0.08309374  0.29372340    -0.37400
O1239       O  0.52242771  0.08209987  0.38049689    -0.38300
O1240       O  0.52927391  0.11276984  0.43036957    -0.34500
O1241       O  0.69080199  0.08843779  0.43196800    -0.35900
O1242       O  0.68729881  0.05507686  0.38380654    -0.40400
C1243       C  0.66853697  0.35998223  0.12589949    -0.13900
C1244       C  0.66197098  0.39305972  0.13877891     0.16500
C1245       C  0.67359836  0.40402626  0.17303265     0.02800
C1246       C  0.68995807  0.38088545  0.19496677    -0.12400
C1247       C  0.69495833  0.34666294  0.18300646    -0.03400
C1248       C  0.68470774  0.33684344  0.14745811     0.02000
C1249       C  0.63838034  0.41290568  0.11847406     0.08900
N1250       N  0.66847044  0.43843225  0.18589268     0.65200
H1251       H  0.69787257  0.38944364  0.22167728     0.18100
N1252       N  0.68829847  0.30272867  0.13336660     0.75700
H1253       H  0.65928401  0.35127338  0.09972934     0.09700
C1254       C  0.64492154  0.42419661  0.08310141     0.03400
C1255       C  0.62012853  0.43657419  0.06179131    -0.05400
C1256       C  0.58863386  0.43881010  0.07542744    -0.23700
C1257       C  0.58225848  0.42786098  0.11136257     0.12600
C1258       C  0.60715561  0.41510429  0.13239676    -0.12900
N1259       N  0.67680748  0.42381335  0.06875292     0.64300
H1260       H  0.62582365  0.44501841  0.03451830     0.12100
N1261       N  0.55069744  0.42861989  0.12674013     0.60900
H1262       H  0.60178912  0.40552070  0.15933256     0.08300
O1263       O  0.71047500  0.29720726  0.11076550    -0.40500
O1264       O  0.66465624  0.28173558  0.13508373    -0.39700
O1265       O  0.64666118  0.44407247  0.20890496    -0.39700
O1266       O  0.68255798  0.46350211  0.17058240    -0.37400
O1267       O  0.53242751  0.40220804  0.12385113    -0.38300
O1268       O  0.54412023  0.45182514  0.14983288    -0.34500
O1269       O  0.68412599  0.40105606  0.04548520    -0.35900
O1270       O  0.69518957  0.44991170  0.07353023    -0.40200
C1271       C  0.91162849  0.13624153  0.09140796    -0.13900
C1272       C  0.89574788  0.12047311  0.12060806     0.16500
C1273       C  0.89859924  0.08459554  0.12516978     0.02800
C1274       C  0.91687371  0.06529506  0.10053840    -0.12400
C1275       C  0.93281633  0.08105656  0.07124989    -0.03400
C1276       C  0.93013413  0.11712558  0.06696449     0.02000
C1277       C  0.87513292  0.14171025  0.14472814     0.08900
N1278       N  0.88347939  0.06744540  0.15497319     0.65200
H1279       H  0.91860883  0.03770753  0.10445555     0.18100
N1280       N  0.94457696  0.13459958  0.03693395     0.75700
H1281       H  0.90891391  0.16361090  0.08687300     0.09700
C1282       C  0.88740092  0.17178216  0.16239952     0.03400
C1283       C  0.86716944  0.19195166  0.18371240    -0.05400
C1284       C  0.83429647  0.18346888  0.18768371    -0.23700
C1285       C  0.82193601  0.15331466  0.16982026     0.12600
C1286       C  0.84235148  0.13298191  0.14848527    -0.12900
N1287       N  0.92058808  0.18187995  0.15968114     0.64300
H1288       H  0.87773540  0.21425305  0.19788773     0.12100
N1289       N  0.78904794  0.14243727  0.17344352     0.60900
H1290       H  0.83237955  0.11027717  0.13443449     0.08300
O1291       O  0.99962096  0.13430306  0.58706719    -0.40500
O1292       O  0.96964838  0.15367490  0.54388788    -0.39700
O1293       O  0.85929266  0.04779136  0.14919615    -0.39700
O1294       O  0.89812412  0.06601638  0.18491471    -0.37400
O1295       O  0.77018010  0.14643228  0.14718016    -0.38300
O1296       O  0.78133969  0.12101229  0.19755408    -0.34500
O1297       O  0.92851686  0.20787840  0.14117070    -0.35900
O1298       O  0.94040309  0.17026589  0.18203892    -0.40200
C1299       C  0.84774966  0.36179145  0.36967988    -0.13900
C1300       C  0.87955619  0.36163620  0.35734940     0.16500
C1301       C  0.88800345  0.33792073  0.32975131     0.02800
C1302       C  0.86439771  0.31610905  0.31399103    -0.12400
C1303       C  0.83217274  0.31681946  0.32549245    -0.03400
C1304       C  0.82416605  0.33954941  0.35444463     0.02000
C1305       C  0.90402174  0.38349796  0.37667231     0.08900
N1306       N  0.92036488  0.33601132  0.31706010     0.65200
H1307       H  0.87143931  0.29877921  0.29197288     0.18100
N1308       N  0.79226561  0.34099028  0.36847932     0.75700
H1309       H  0.84124356  0.37890852  0.39212769     0.09700
C1310       C  0.90212239  0.41977573  0.37881307     0.03400
C1311       C  0.92302229  0.43885244  0.40179209    -0.05400
C1312       C  0.94524556  0.42236767  0.42386325    -0.23700
C1313       C  0.94779128  0.38602938  0.42060182     0.12600
C1314       C  0.92748172  0.36722974  0.39687739    -0.12900
N1315       N  0.87830978  0.43750451  0.35896313     0.64300
H1316       H  0.92044990  0.46662986  0.40395249     0.12100
N1317       N  0.97021253  0.36739511  0.44157015     0.60900
H1318       H  0.92882456  0.33927255  0.39589270     0.08300
O1319       O  0.77685202  0.36826580  0.36459529    -0.40500
O1320       O  0.78344467  0.31988205  0.39250060    -0.39700
O1321       O  0.93751880  0.31166471  0.32740117    -0.39700
O1322       O  0.92893648  0.35313290  0.28967794    -0.37400
O1323       O  0.96202052  0.35748447  0.47282119    -0.38300
O1324       O  0.99210822  0.35160564  0.42503206    -0.34500
O1325       O  0.85328693  0.44717116  0.37517687    -0.35900
O1326       O  0.88576889  0.45072963  0.32890883    -0.40200
C1327       C  0.84872361  0.11367105  0.32914774    -0.13900
C1328       C  0.85279446  0.12291524  0.36575628     0.16500
C1329       C  0.83885176  0.15366935  0.37901707     0.02800
C1330       C  0.82064326  0.17374385  0.35569132    -0.12400
C1331       C  0.81560720  0.16344626  0.31946825    -0.03400
C1332       C  0.83011170  0.13322281  0.30617050     0.02000
C1333       C  0.87381649  0.10165293  0.38852721     0.08900
N1334       N  0.84223282  0.16441388  0.41620302     0.65200
H1335       H  0.80957837  0.19696384  0.36624759     0.18100
N1336       N  0.82737551  0.12268197  0.26892526     0.75700
H1337       H  0.86075761  0.09134741  0.31787889     0.09700
C1338       C  0.86941975  0.06539539  0.39118540     0.03400
C1339       C  0.89022869  0.04662428  0.41277707    -0.05400
C1340       C  0.91594179  0.06310063  0.43116542    -0.23700
C1341       C  0.92089657  0.09902544  0.42753358     0.12600
C1342       C  0.90011943  0.11774324  0.40610342    -0.12900
N1343       N  0.84398023  0.04721247  0.37234421     0.64300
H1344       H  0.88626813  0.01891486  0.41515505     0.12100
N1345       N  0.94551211  0.11741186  0.44739969     0.60900
H1346       H  0.90459566  0.14532263  0.40332386     0.08300
O1347       O  0.80921458  0.09712965  0.26082103    -0.40500
O1348       O  0.84957307  0.13128936  0.24725956    -0.39700
O1349       O  0.86101589  0.18949124  0.42422782    -0.39700
O1350       O  0.82116806  0.15496067  0.43889206    -0.37400
O1351       O  0.94073369  0.12467712  0.48047408    -0.38300
O1352       O  0.96663325  0.13441558  0.43019058    -0.34500
O1353       O  0.85040686  0.03008678  0.34388454    -0.35900
O1354       O  0.81791444  0.04091226  0.38876383    -0.40200
C1355       C  0.64014250  0.34584087  0.37633341    -0.13900
C1356       C  0.60894895  0.34705882  0.36257602     0.16500
C1357       C  0.60144532  0.33007340  0.32953098     0.02800
C1358       C  0.62550359  0.31268090  0.31025280    -0.12400
C1359       C  0.65742455  0.31225218  0.32333050    -0.03400
C1360       C  0.66433370  0.32901797  0.35712256     0.02000
C1361       C  0.58551322  0.36852179  0.38217257     0.08900
N1362       N  0.56968778  0.33111334  0.31491066     0.65200
H1363       H  0.61930393  0.30033071  0.28451268     0.18100
N1364       N  0.69627985  0.33217148  0.37097974     0.75700
H1365       H  0.64611385  0.35937053  0.40155285     0.09700
C1366       C  0.56983924  0.35629558  0.41336973     0.03400
C1367       C  0.55252648  0.37896007  0.43527168    -0.05400
C1368       C  0.55058444  0.41419958  0.42703108    -0.23700
C1369       C  0.56498675  0.42599762  0.39446782     0.12600
C1370       C  0.58226679  0.40306825  0.37245835    -0.12900
N1371       N  0.57279856  0.32131263  0.42421921     0.64300
H1372       H  0.54185993  0.36899310  0.46006741     0.12100
N1373       N  0.56430266  0.46143552  0.38454151     0.60900
H1374       H  0.59461346  0.41272920  0.34848282     0.08300
O1375       O  0.71207691  0.35984882  0.36573621    -0.40500
O1376       O  0.70495844  0.31234154  0.39577603    -0.39700
O1377       O  0.54745871  0.31270381  0.32852749    -0.39700
O1378       O  0.56279517  0.35446491  0.29295940    -0.37400
O1379       O  0.58871583  0.48069842  0.39046763    -0.38300
O1380       O  0.54306056  0.47105199  0.36273383    -0.34500
O1381       O  0.59388416  0.31393723  0.44726237    -0.35900
O1382       O  0.55065646  0.29953823  0.41654817    -0.40200
C1383       C  0.85473952  0.41937649  0.09048903    -0.13900
C1384       C  0.86521425  0.39932434  0.11925554     0.16500
C1385       C  0.89817813  0.39968256  0.12807419     0.02800
C1386       C  0.92002746  0.41937544  0.10776996    -0.12400
C1387       C  0.90995950  0.43874745  0.07808979    -0.03400
C1388       C  0.87667798  0.43887848  0.06975925     0.02000
C1389       C  0.84220565  0.37606065  0.13824215     0.08900
N1390       N  0.90989763  0.37980309  0.15741565     0.65200
H1391       H  0.94532952  0.41869269  0.11493331     0.18100
N1392       N  0.86473575  0.45771042  0.03980782     0.75700
H1393       H  0.82941684  0.41891715  0.08320399     0.09700
C1394       C  0.81650485  0.38871142  0.15904443     0.03400
C1395       C  0.79816837  0.36606905  0.18043550    -0.05400
C1396       C  0.80463847  0.33070375  0.18104240    -0.23700
C1397       C  0.82844413  0.31768855  0.15742288     0.12600
C1398       C  0.84700901  0.34045912  0.13655140    -0.12900
N1399       N  0.80974348  0.42463225  0.16014738     0.64300
H1400       H  0.77942151  0.37647221  0.19768758     0.12100
N1401       N  0.83602081  0.28196821  0.15642323     0.60900
H1402       H  0.86611344  0.33031437  0.11963231     0.08300
O1403       O  0.85173447  0.48631795  0.04567422    -0.40500
O1404       O  0.86061827  0.44252744  0.00947872    -0.39700
O1405       O  0.92459406  0.35236219  0.15061036    -0.39700
O1406       O  0.91139486  0.39305259  0.18895511    -0.37400
O1407       O  0.82217618  0.26205263  0.13351275    -0.38300
O1408       O  0.86146810  0.27256016  0.17151841    -0.34500
O1409       O  0.78640138  0.43538895  0.14203587    -0.35900
O1410       O  0.82206713  0.44367229  0.18485942    -0.40200
O1411       O  0.93288520  0.46620616  0.51899812    -0.79700
O1412       O  0.55880769  0.02356010  0.54319149    -0.79700
O1413       O  0.53253936  0.45084536  0.56022834    -0.79700
O1414       O  0.97695291  0.07403732  0.52810213    -0.79600
O1415       O  0.56931020  0.46236625  0.51918462    -0.79800
O1416       O  0.94957791  0.02892987  0.54333852    -0.79700
O1417       O  0.53909775  0.07123562  0.52692864    -0.79700
O1418       O  0.96964491  0.45185229  0.55784490    -0.79700
C1419       C  0.94030774  0.45312730  0.54914344     1.10000
C1420       C  0.55771398  0.05534242  0.54719644     1.09900
C1421       C  0.56173268  0.45120214  0.55050373     1.10100
C1422       C  0.95630780  0.06023580  0.54835415     1.09900
O1423       O  0.91921870  0.02127275  0.97484759    -0.79700
O1424       O  0.53796648  0.47288737  0.95188685    -0.79700
O1425       O  0.96323698  0.43205205  0.98970708    -0.79700
O1426       O  0.53972169  0.04226018  0.94871054    -0.79600
O1427       O  0.58430714  0.02105928  0.97141668    -0.79700
O1428       O  0.96135356  0.47813610  0.95662978    -0.79700
O1429       O  0.96414345  0.04269058  0.94998174    -0.79600
O1430       O  0.53237389  0.42868898  0.98734029    -0.79700
Co1431     Co  0.96019547  0.50286492  0.49503841     1.51500
Co1432     Co  0.54684446  0.00169304  0.99366553     1.51700
Co1433     Co  0.00177089  0.44363639  0.51949601     1.51600
Co1434     Co  0.00047926  0.04974232  0.98871863     1.51500
O1435       O  0.00367528  0.49647625  0.51107992    -1.41600
C1436       C  0.93299196  0.04076031  0.95194967     1.10000
C1437       C  0.54077271  0.44094355  0.95697216     1.10100
C1438       C  0.95739412  0.44582821  0.95961083     1.10000
C1439       C  0.57092325  0.04182194  0.95001353     1.10000
O1440       O  0.81924351  0.28610040  0.77200965    -0.79700
O1441       O  0.68688714  0.22022196  0.76714923    -0.79700
O1442       O  0.71649713  0.30021346  0.81064662    -0.79700
O1443       O  0.77399185  0.17092403  0.77691823    -0.79600
O1444       O  0.67987249  0.28965075  0.76852725    -0.79800
O1445       O  0.80037714  0.21968571  0.79042831    -0.79700
O1446       O  0.72888615  0.21478894  0.80315324    -0.79700
O1447       O  0.78238841  0.29719474  0.81166766    -0.79700
C1448       C  0.81156210  0.29875439  0.80251359     1.10000
C1449       C  0.69921529  0.20993189  0.79680661     1.09900
C1450       C  0.68740905  0.29978217  0.80069300     1.10100
C1451       C  0.79557846  0.18680264  0.79518055     1.09900
O1452       O  0.83189672  0.23286086  0.72801032    -0.79700
O1453       O  0.71252445  0.29467168  0.69875534    -0.79700
O1454       O  0.78385697  0.32718177  0.73867440    -0.79700
O1455       O  0.72546176  0.18457783  0.73188550    -0.79600
O1456       O  0.71710685  0.22549605  0.69422194    -0.79700
O1457       O  0.79064387  0.28144237  0.70278486    -0.79700
O1458       O  0.78718450  0.20396030  0.71456461    -0.79600
O1459       O  0.71913082  0.33437568  0.74124019    -0.79700
Co1460     Co  0.79261666  0.25079999  0.74477654     1.51500
Co1461     Co  0.70192936  0.25761580  0.73260594     1.51700
Co1462     Co  0.75049703  0.31136618  0.77508366     1.51600
Co1463     Co  0.75769386  0.21286800  0.76066380     1.51500
O1464       O  0.74669433  0.26256351  0.75366721    -1.41600
C1465       C  0.81802340  0.20828799  0.71082191     1.10000
C1466       C  0.71062187  0.32569035  0.70903546     1.10100
C1467       C  0.79295334  0.31380087  0.70844950     1.10000
C1468       C  0.71517207  0.19396682  0.70141404     1.10000
C1469       C  0.62536302  0.07623614  0.61462753    -0.13900
C1470       C  0.62289769  0.11188284  0.61893236     0.16500
C1471       C  0.59793605  0.12873460  0.60098093     0.02800
C1472       C  0.57648480  0.10976651  0.57859566    -0.12400
C1473       C  0.57920090  0.07395688  0.57369857    -0.03400
C1474       C  0.60387318  0.05718901  0.59264025     0.02000
C1475       C  0.64815803  0.13122166  0.63972722     0.08900
N1476       N  0.59388740  0.16503957  0.60550335     0.65200
H1477       H  0.55770256  0.12335886  0.56467068     0.18100
N1478       N  0.60854048  0.02102914  0.58903758     0.75700
H1479       H  0.64493179  0.06301480  0.62759221     0.09700
C1480       C  0.65645143  0.12245130  0.67553310     0.03400
C1481       C  0.68048657  0.14151679  0.69402049    -0.05400
C1482       C  0.69625643  0.16975873  0.67776626    -0.23700
C1483       C  0.68968489  0.17660484  0.64089670     0.12600
C1484       C  0.66587147  0.15730630  0.62238470    -0.12900
N1485       N  0.63943230  0.09562790  0.69425258     0.64300
H1486       H  0.68526598  0.13548013  0.72222338     0.12100
N1487       N  0.70691526  0.20270768  0.62147800     0.60900
H1488       H  0.66116383  0.16282583  0.59402856     0.08300
O1489       O  0.59979983  0.00188253  0.61482200    -0.40500
O1490       O  0.62807437  0.01189126  0.05244231    -0.39700
O1491       O  0.60058660  0.18487564  0.57955862    -0.39700
O1492       O  0.57754595  0.17610796  0.63192336    -0.37400
O1493       O  0.72980399  0.19375051  0.60127549    -0.38300
O1494       O  0.69252373  0.22982138  0.61393000    -0.34500
O1495       O  0.65416085  0.06929776  0.70406485    -0.35900
O1496       O  0.61186510  0.10122819  0.70698095    -0.40200
C1497       C  0.66979700  0.15919644  0.87868935    -0.13900
C1498       C  0.64866613  0.13505471  0.86183855     0.16500
C1499       C  0.64301907  0.13733956  0.82413298     0.02800
C1500       C  0.65838017  0.16324492  0.80413477    -0.12400
C1501       C  0.68012779  0.18685861  0.82064997    -0.03400
C1502       C  0.68567490  0.18485652  0.85842812     0.02000
C1503       C  0.62973491  0.11020855  0.88415239     0.08900
N1504       N  0.62252721  0.11271763  0.80550190     0.65200
H1505       H  0.65427766  0.16386152  0.77499104     0.18100
N1506       N  0.70567025  0.20995991  0.87693701     0.75700
H1507       H  0.67330994  0.15875050  0.90792371     0.09700
C1508       C  0.64408576  0.08654818  0.90748140     0.03400
C1509       C  0.62469424  0.06389632  0.92799937    -0.05400
C1510       C  0.59091668  0.06438184  0.92591687    -0.23700
C1511       C  0.57696303  0.08855450  0.90277669     0.12600
C1512       C  0.59623906  0.11104666  0.88251410    -0.12900
N1513       N  0.67823062  0.08487631  0.91026096     0.64300
H1514       H  0.63626147  0.04601900  0.94590329     0.12100
N1515       N  0.54314781  0.09225224  0.90098782     0.60900
H1516       H  0.58476075  0.12996788  0.86573461     0.08300
O1517       O  0.73272691  0.20148030  0.88883500    -0.40500
O1518       O  0.69334421  0.23736390  0.88865395    -0.39700
O1519       O  0.59666592  0.12233545  0.79144364    -0.39700
O1520       O  0.63298321  0.08330515  0.79742049    -0.37400
O1521       O  0.52768453  0.07835084  0.87486978    -0.38300
O1522       O  0.53055722  0.11567392  0.91996455    -0.34500
O1523       O  0.69224846  0.09697292  0.93828634    -0.35900
O1524       O  0.69325114  0.06544600  0.88869243    -0.40400
C1525       C  0.66734963  0.36346017  0.62806265    -0.13900
C1526       C  0.66093633  0.39662394  0.64069408     0.16500
C1527       C  0.67318306  0.40793496  0.67460921     0.02800
C1528       C  0.69056158  0.38517661  0.69615258    -0.12400
C1529       C  0.69575055  0.35095796  0.68421099    -0.03400
C1530       C  0.68421756  0.34067933  0.64927563     0.02000
C1531       C  0.63725323  0.41618042  0.62006527     0.08900
N1532       N  0.66784614  0.44230181  0.68744923     0.65200
H1533       H  0.69917210  0.39399509  0.72249076     0.18100
N1534       N  0.68667763  0.30621235  0.63580743     0.75700
H1535       H  0.65739864  0.35435417  0.60236468     0.09700
C1536       C  0.64380811  0.42662410  0.58436619     0.03400
C1537       C  0.61884962  0.43732510  0.56216464    -0.05400
C1538       C  0.58708421  0.43866089  0.57511430    -0.23700
C1539       C  0.58071151  0.42879844  0.61142594     0.12600
C1540       C  0.60578759  0.41775256  0.63341099    -0.12900
N1541       N  0.67580092  0.42637791  0.57030634     0.64300
H1542       H  0.62457135  0.44494284  0.53463579     0.12100
N1543       N  0.54900117  0.42924656  0.62636382     0.60900
H1544       H  0.60038340  0.40883015  0.66057908     0.08300
O1545       O  0.70726111  0.29980511  0.61158497    -0.40500
O1546       O  0.66317569  0.28547291  0.64032596    -0.39700
O1547       O  0.64602442  0.44777506  0.71049394    -0.39700
O1548       O  0.68163398  0.46747009  0.67199035    -0.37400
O1549       O  0.53160150  0.40208407  0.62519451    -0.38300
O1550       O  0.54117399  0.45393513  0.64705170    -0.34500
O1551       O  0.68390235  0.40252358  0.54869555    -0.35900
O1552       O  0.69363956  0.45305989  0.57382779    -0.40200
C1553       C  0.92643276  0.13414949  0.60876722    -0.13900
C1554       C  0.89882886  0.11878733  0.62417380     0.16500
C1555       C  0.89128305  0.08391087  0.61580168     0.02800
C1556       C  0.91117396  0.06519044  0.59245090    -0.12400
C1557       C  0.93845076  0.08060734  0.57615804    -0.03400
C1558       C  0.94614267  0.11561801  0.58486095     0.02000
C1559       C  0.87753119  0.14007939  0.64745413     0.08900
N1560       N  0.86341629  0.06708853  0.63068506     0.65200
H1561       H  0.90459885  0.03845191  0.58633738     0.18100
N1562       N  0.97355136  0.13299196  0.56953991     0.75700
H1563       H  0.93233155  0.16111578  0.61466366     0.09700
C1564       C  0.88899437  0.15638704  0.67960460     0.03400
C1565       C  0.86921683  0.17860635  0.69930550    -0.05400
C1566       C  0.83765572  0.18481625  0.68801895    -0.23700
C1567       C  0.82603601  0.16805840  0.65615287     0.12600
C1568       C  0.84601375  0.14613384  0.63609425    -0.12900
N1569       N  0.92032405  0.14974723  0.69325204     0.64300
H1570       H  0.87852657  0.19064457  0.72416259     0.12100
N1571       N  0.79508726  0.17519069  0.64211412     0.60900
H1572       H  0.83713212  0.13454853  0.61083005     0.08300
O1573       O  0.97023882  0.15215620  0.04176546    -0.40500
O1574       O  0.92839560  0.13860789  0.00837576    -0.39700
O1575       O  0.83841417  0.06346417  0.61144520    -0.39700
O1576       O  0.86624330  0.04905716  0.65868336    -0.37400
O1577       O  0.79289286  0.19772551  0.61796627    -0.38300
O1578       O  0.77222665  0.15364982  0.64663850    -0.34500
O1579       O  0.94242633  0.17246452  0.69042243    -0.35900
O1580       O  0.92386694  0.12510123  0.71474341    -0.40200
C1581       C  0.85107362  0.36085764  0.87157394    -0.13900
C1582       C  0.88273335  0.36220377  0.85898477     0.16500
C1583       C  0.89158928  0.34043484  0.82989643     0.02800
C1584       C  0.86837259  0.31870052  0.81311895    -0.12400
C1585       C  0.83611277  0.31816445  0.82477107    -0.03400
C1586       C  0.82782574  0.33923940  0.85496758     0.02000
C1587       C  0.90637113  0.38435908  0.87902408     0.08900
N1588       N  0.92371954  0.34114345  0.81622787     0.65200
H1589       H  0.87558599  0.30286778  0.78995834     0.18100
N1590       N  0.79562403  0.34088085  0.86788774     0.75700
H1591       H  0.84424296  0.37696102  0.89472288     0.09700
C1592       C  0.90413222  0.42058450  0.87998516     0.03400
C1593       C  0.92274025  0.44031657  0.90473308    -0.05400
C1594       C  0.94275192  0.42447283  0.92983110    -0.23700
C1595       C  0.94565788  0.38805198  0.92795300     0.12600
C1596       C  0.92796354  0.36863018  0.90215470    -0.12900
N1597       N  0.88182070  0.43752315  0.85732261     0.64300
H1598       H  0.91988622  0.46810625  0.90579997     0.12100
N1599       N  0.96513450  0.36995865  0.95293161     0.60900
H1600       H  0.92937623  0.34065551  0.90198524     0.08300
O1601       O  0.78026191  0.36786503  0.86215263    -0.40500
O1602       O  0.78644500  0.32094104  0.89283096    -0.39700
O1603       O  0.94186516  0.31640571  0.82269214    -0.39700
O1604       O  0.93155286  0.36242442  0.79198335    -0.37400
O1605       O  0.95325254  0.36131723  0.98312561    -0.38300
O1606       O  0.98891070  0.35384053  0.94080761    -0.34500
O1607       O  0.85532174  0.44675666  0.87047839    -0.35900
O1608       O  0.89140273  0.45004348  0.82766926    -0.40200
C1609       C  0.82366472  0.11853549  0.86015604    -0.13900
C1610       C  0.85554607  0.12955879  0.86619128     0.16500
C1611       C  0.86720950  0.16005000  0.85000089     0.02800
C1612       C  0.84685408  0.17912812  0.82820687    -0.12400
C1613       C  0.81507220  0.16777958  0.82139460    -0.03400
C1614       C  0.80348289  0.13700640  0.83765585     0.02000
C1615       C  0.87646432  0.10795092  0.88827978     0.08900
N1616       N  0.89974608  0.17170841  0.85519848     0.65200
H1617       H  0.85634640  0.20236246  0.81552152     0.18100
N1618       N  0.77147035  0.12391704  0.83140989     0.75700
H1619       H  0.81461317  0.09484266  0.87231385     0.09700
C1620       C  0.87069610  0.10389148  0.92567062     0.03400
C1621       C  0.88889965  0.08096104  0.94535320    -0.05400
C1622       C  0.91310795  0.06195012  0.92851516    -0.23700
C1623       C  0.91884793  0.06574062  0.89099817     0.12600
C1624       C  0.90055129  0.08883814  0.87122500    -0.12900
N1625       N  0.84701038  0.12362322  0.94416875     0.64300
H1626       H  0.88464884  0.07869287  0.97441296     0.12100
N1627       N  0.94127311  0.04456523  0.87220401     0.60900
H1628       H  0.90439837  0.09103169  0.84210700     0.08300
O1629       O  0.75001918  0.12934864  0.85491871    -0.40500
O1630       O  0.76656076  0.10091390  0.80720457    -0.39700
O1631       O  0.92013939  0.16662784  0.83040988    -0.39700
O1632       O  0.90663324  0.19225448  0.88117280    -0.37400
O1633       O  0.96537373  0.05843984  0.85696967    -0.38300
O1634       O  0.93299783  0.01400826  0.86340920    -0.34500
O1635       O  0.82094132  0.10912425  0.95379942    -0.35900
O1636       O  0.85477406  0.15294004  0.95733798    -0.40200
C1637       C  0.64620445  0.34557423  0.88045826    -0.13900
C1638       C  0.61525564  0.34927319  0.86674241     0.16500
C1639       C  0.60703969  0.33403144  0.83301682     0.02800
C1640       C  0.63035568  0.31660520  0.81263042    -0.12400
C1641       C  0.66223056  0.31422487  0.82537322    -0.03400
C1642       C  0.66966905  0.32850149  0.86028510     0.02000
C1643       C  0.59288460  0.37154376  0.88698852     0.08900
N1644       N  0.57520067  0.33663257  0.81901162     0.65200
H1645       H  0.62365982  0.30587173  0.78629041     0.18100
N1646       N  0.70154498  0.32911333  0.87451571     0.75700
H1647       H  0.65266303  0.35747503  0.90638973     0.09700
C1648       C  0.57738793  0.35981008  0.91846364     0.03400
C1649       C  0.56007710  0.38276778  0.93998373    -0.05400
C1650       C  0.55701199  0.41763194  0.93050515    -0.23700
C1651       C  0.57194169  0.42910786  0.89815432     0.12600
C1652       C  0.58977139  0.40602829  0.87686823    -0.12900
N1653       N  0.57900849  0.32455922  0.92889368     0.64300
H1654       H  0.54902666  0.37293802  0.96462324     0.12100
N1655       N  0.57078224  0.46427775  0.88742879     0.60900
H1656       H  0.60213475  0.41536856  0.85278608     0.08300
O1657       O  0.71783034  0.35691784  0.87292488    -0.40500
O1658       O  0.70902798  0.30710068  0.89769245    -0.39700
O1659       O  0.55271318  0.31819927  0.83206690    -0.39700
O1660       O  0.56861155  0.36128453  0.79857230    -0.37400
O1661       O  0.59481657  0.48408827  0.89336266    -0.38300
O1662       O  0.54985107  0.47291546  0.86475718    -0.34500
O1663       O  0.59788519  0.31641249  0.95397993    -0.35900
O1664       O  0.55726007  0.30331511  0.91854203    -0.40200
C1665       C  0.86020144  0.42256618  0.58986442    -0.13900
C1666       C  0.87106487  0.40230545  0.61826645     0.16500
C1667       C  0.90418875  0.40048096  0.62500628     0.02800
C1668       C  0.92601100  0.41815738  0.60287777    -0.12400
C1669       C  0.91556600  0.43756204  0.57338257    -0.03400
C1670       C  0.88208580  0.44006548  0.56723623     0.02000
C1671       C  0.84806664  0.38064878  0.63879719     0.08900
N1672       N  0.91602619  0.38003559  0.65379961     0.65200
H1673       H  0.95149192  0.41573816  0.60838467     0.18100
N1674       N  0.86986836  0.45946500  0.53783101     0.75700
H1675       H  0.83458488  0.42387919  0.58450861     0.09700
C1676       C  0.82954088  0.39435892  0.66721056     0.03400
C1677       C  0.81025314  0.37229223  0.68813318    -0.05400
C1678       C  0.80933960  0.33637751  0.68156920    -0.23700
C1679       C  0.82682849  0.32302907  0.65164862     0.12600
C1680       C  0.84596725  0.34526581  0.63073215    -0.12900
N1681       N  0.83154814  0.43028811  0.67648011     0.64300
H1682       H  0.79693221  0.38336130  0.71068991     0.12100
N1683       N  0.82652884  0.28697854  0.64282253     0.60900
H1684       H  0.86005706  0.33467303  0.60850553     0.08300
O1685       O  0.85976167  0.48942316  0.54392203    -0.40500
O1686       O  0.86297135  0.44427568  0.50812100    -0.39700
O1687       O  0.92613526  0.35024940  0.64675286    -0.39700
O1688       O  0.92228241  0.39408762  0.68425878    -0.37400
O1689       O  0.80707187  0.27514678  0.61914530    -0.38300
O1690       O  0.84994195  0.26906903  0.65214513    -0.34500
O1691       O  0.80858658  0.44939515  0.66852665    -0.35900
O1692       O  0.85266291  0.44116481  0.69878684    -0.40200
O1693       O  0.92805279  0.96578222  0.01959692    -0.79700
O1694       O  0.55943904  0.52534681  0.04169608    -0.79700
O1695       O  0.53373329  0.95080042  0.05726084    -0.79700
O1696       O  0.97305732  0.57580882  0.02943797    -0.79600
O1697       O  0.57119544  0.96416098  0.01762156    -0.79800
O1698       O  0.94632249  0.53109708  0.04747054    -0.79700
O1699       O  0.54026980  0.57238970  0.02321277    -0.79700
O1700       O  0.96393738  0.95181062  0.05967107    -0.79700
C1701       C  0.93486068  0.95221566  0.04966627     1.10000
C1702       C  0.55822528  0.55718709  0.04469085     1.09900
C1703       C  0.56307012  0.95153500  0.04813286     1.10100
C1704       C  0.95307579  0.56256645  0.05088948     1.09900
O1705       O  0.92340403  0.52106810  0.47426677    -0.79700
O1706       O  0.53414257  0.97256681  0.45347799    -0.79700
O1707       O  0.96809772  0.92953161  0.48831137    -0.79700
O1708       O  0.53691888  0.53757786  0.44913385    -0.79600
O1709       O  0.58224404  0.51722425  0.47028490    -0.79700
O1710       O  0.96590323  0.97452776  0.45379288    -0.79700
O1711       O  0.96747553  0.54746531  0.45235993    -0.79600
O1712       O  0.52797409  0.92819319  0.48857559    -0.79700
Co1713     Co  0.95567902  0.00280361  0.99672338     1.51500
Co1714     Co  0.54477076  0.49902849  0.49398047     1.51700
Co1715     Co  0.99735580  0.94397401  0.02241170     1.51600
Co1716     Co  0.00556953  0.55041245  0.48949846     1.51500
O1717       O  0.99898770  0.99679701  0.01308059    -1.41600
C1718       C  0.93636374  0.54322591  0.45359130     1.10000
C1719       C  0.53635339  0.94049778  0.45821490     1.10100
C1720       C  0.96152728  0.94242002  0.45795601     1.10000
C1721       C  0.56793490  0.53915645  0.45109850     1.10000
O1722       O  0.81614465  0.78405373  0.27602589    -0.79700
O1723       O  0.68402108  0.72002799  0.27189891    -0.79700
O1724       O  0.71356692  0.80166710  0.31202869    -0.79700
O1725       O  0.77132317  0.66912863  0.27961689    -0.79600
O1726       O  0.67676603  0.78942168  0.27052556    -0.79800
O1727       O  0.79619649  0.71792725  0.29601772    -0.79700
O1728       O  0.72646641  0.71328029  0.30687065    -0.79700
O1729       O  0.77893246  0.79763095  0.31431368    -0.79700
C1730       C  0.80824056  0.79781349  0.30588135     1.10000
C1731       C  0.69650221  0.70988194  0.30160002     1.09900
C1732       C  0.68448412  0.80098345  0.30212233     1.10100
C1733       C  0.79275335  0.68463328  0.29840353     1.09900
O1734       O  0.82836857  0.72982213  0.23423652    -0.79700
O1735       O  0.70996409  0.79193187  0.20070826    -0.79700
O1736       O  0.78194732  0.82489640  0.23996723    -0.79700
O1737       O  0.72184372  0.68287937  0.23647227    -0.79600
O1738       O  0.71500501  0.72373571  0.19859987    -0.79700
O1739       O  0.78843158  0.77760823  0.20637782    -0.79700
O1740       O  0.78384324  0.70229899  0.21808191    -0.79600
O1741       O  0.71714157  0.83315542  0.24133827    -0.79700
Co1742     Co  0.78933199  0.74842738  0.24967786     1.51500
Co1743     Co  0.69914086  0.75626036  0.23595359     1.51700
Co1744     Co  0.74792096  0.81093988  0.27650692     1.51600
Co1745     Co  0.75466650  0.71125960  0.26412093     1.51500
O1746       O  0.74356593  0.76130467  0.25741174    -1.41600
C1747       C  0.81477698  0.70612385  0.21554328     1.10000
C1748       C  0.70852448  0.82330520  0.20952582     1.10100
C1749       C  0.79105715  0.81009127  0.21050840     1.10000
C1750       C  0.71238715  0.69236186  0.20578943     1.10000
C1751       C  0.62060487  0.57884255  0.11769883    -0.13900
C1752       C  0.62272524  0.61472226  0.11607214     0.16500
C1753       C  0.60296435  0.63185778  0.09130297     0.02800
C1754       C  0.58126770  0.61274705  0.06935950    -0.12400
C1755       C  0.57906133  0.57659592  0.07109209    -0.03400
C1756       C  0.59908089  0.55977267  0.09594671     0.02000
C1757       C  0.64702402  0.63314569  0.13905525     0.08900
N1758       N  0.60484049  0.66850624  0.08774026     0.65200
H1759       H  0.56658227  0.62639938  0.05015896     0.18100
N1760       N  0.59901617  0.52321836  0.09886634     0.75700
H1761       H  0.63654451  0.56514333  0.13554746     0.09700
C1762       C  0.64919181  0.62726232  0.17679299     0.03400
C1763       C  0.67276085  0.64473426  0.19745342    -0.05400
C1764       C  0.69377243  0.66888800  0.18150772    -0.23700
C1765       C  0.69276028  0.67336866  0.14348936     0.12600
C1766       C  0.66980604  0.65507613  0.12267200    -0.12900
N1767       N  0.62652665  0.60519501  0.19495313     0.64300
H1768       H  0.67303715  0.64117582  0.22669845     0.12100
N1769       N  0.71399309  0.69715238  0.12562347     0.60900
H1770       H  0.66963075  0.65836584  0.09340889     0.08300
O1771       O  0.58065816  0.50920123  0.12190715    -0.40500
O1772       O  0.62714544  0.51217002  0.57129449    -0.39700
O1773       O  0.61852216  0.68124446  0.06022740    -0.39700
O1774       O  0.58654413  0.68702490  0.10666862    -0.37400
O1775       O  0.73749459  0.68573522  0.10789718    -0.38300
O1776       O  0.70358618  0.72626619  0.11766595    -0.34500
O1777       O  0.63571404  0.57710898  0.20777905    -0.35900
O1778       O  0.60007308  0.61715338  0.20528822    -0.40200
C1779       C  0.67100230  0.65125370  0.37925274    -0.13900
C1780       C  0.63989749  0.64107761  0.36821541     0.16500
C1781       C  0.62613146  0.65755223  0.33822779     0.02800
C1782       C  0.64440402  0.68145938  0.31837016    -0.12400
C1783       C  0.67642362  0.68981448  0.32771945    -0.03400
C1784       C  0.68926965  0.67539495  0.35959353     0.02000
C1785       C  0.62180697  0.61431847  0.38905497     0.08900
N1786       N  0.59401608  0.64940164  0.32661879     0.65200
H1787       H  0.63364128  0.69250020  0.29447852     0.18100
N1788       N  0.72079616  0.68464440  0.37241872     0.75700
H1789       H  0.68126580  0.64042408  0.40353898     0.09700
C1790       C  0.63481114  0.58179900  0.39646545     0.03400
C1791       C  0.61704682  0.55762222  0.41673228    -0.05400
C1792       C  0.58627554  0.56504854  0.42974306    -0.23700
C1793       C  0.57383515  0.59802124  0.42342146     0.12600
C1794       C  0.59157818  0.62208973  0.40324673    -0.12900
N1795       N  0.66585117  0.57273950  0.38334151     0.64300
H1796       H  0.62731590  0.53275281  0.42200994     0.12100
N1797       N  0.54450484  0.60866940  0.43984626     0.60900
H1798       H  0.58204581  0.64760747  0.39975230     0.08300
O1799       O  0.74295542  0.66320638  0.36918295    -0.40500
O1800       O  0.72444102  0.70999308  0.39414417    -0.39700
O1801       O  0.57215640  0.67054853  0.33337667    -0.39700
O1802       O  0.58927314  0.62622798  0.30258020    -0.37400
O1803       O  0.52042740  0.61355926  0.41996841    -0.38300
O1804       O  0.54541360  0.62210100  0.47131826    -0.34500
O1805       O  0.68909681  0.57200401  0.40532111    -0.35900
O1806       O  0.66828086  0.55811471  0.35259874    -0.40400
C1807       C  0.66447507  0.85797844  0.12744720    -0.13900
C1808       C  0.66028115  0.89227874  0.13771532     0.16500
C1809       C  0.67438212  0.90516853  0.17010281     0.02800
C1810       C  0.69100591  0.88285008  0.19287835    -0.12400
C1811       C  0.69404965  0.84764432  0.18340762    -0.03400
C1812       C  0.68111350  0.83576634  0.14957852     0.02000
C1813       C  0.63726840  0.91209213  0.11645232     0.08900
N1814       N  0.67194336  0.94081167  0.17997900     0.65200
H1815       H  0.70101797  0.89293494  0.21810598     0.18100
N1816       N  0.68371906  0.80093028  0.13717268     0.75700
H1817       H  0.65348325  0.84786714  0.10268710     0.09700
C1818       C  0.64357234  0.92056214  0.08008608     0.03400
C1819       C  0.61906704  0.93315222  0.05845129    -0.05400
C1820       C  0.58792937  0.93757543  0.07235429    -0.23700
C1821       C  0.58174362  0.92921344  0.10911297     0.12600
C1822       C  0.60645681  0.91680227  0.13072425    -0.12900
N1823       N  0.67469665  0.91604472  0.06462344     0.64300
H1824       H  0.62452538  0.93928925  0.03042442     0.12100
N1825       N  0.55064534  0.93290912  0.12499837     0.60900
H1826       H  0.60120751  0.90944226  0.15846994     0.08300
O1827       O  0.70255993  0.79466991  0.11115290    -0.40500
O1828       O  0.66137592  0.77944176  0.14435861    -0.39700
O1829       O  0.65125207  0.94999812  0.20301149    -0.39700
O1830       O  0.68709193  0.96338903  0.16194488    -0.37400
O1831       O  0.53163143  0.90704011  0.12621465    -0.38300
O1832       O  0.54513768  0.95916276  0.14454479    -0.34500
O1833       O  0.67987581  0.88957738  0.04527704    -0.35900
O1834       O  0.69432985  0.94138969  0.06378453    -0.40200
C1835       C  0.91358629  0.63828174  0.09811523    -0.13900
C1836       C  0.89939581  0.62234581  0.12817197     0.16500
C1837       C  0.90435388  0.58700776  0.13382752     0.02800
C1838       C  0.92263129  0.56812499  0.10889105    -0.12400
C1839       C  0.93652990  0.58399397  0.07841761    -0.03400
C1840       C  0.93217989  0.61969379  0.07346918     0.02000
C1841       C  0.87788934  0.64277062  0.15166961     0.08900
N1842       N  0.89127828  0.57007941  0.16491787     0.65200
H1843       H  0.92580490  0.54079375  0.11331113     0.18100
N1844       N  0.94396065  0.63695571  0.04197493     0.75700
H1845       H  0.90920445  0.66525298  0.09291941     0.09700
C1846       C  0.88899993  0.67350768  0.16881130     0.03400
C1847       C  0.86777570  0.69343180  0.18883386    -0.05400
C1848       C  0.83495418  0.68421752  0.19169256    -0.23700
C1849       C  0.82370530  0.65341664  0.17421906     0.12600
C1850       C  0.84525273  0.63307152  0.15445906    -0.12900
N1851       N  0.92192554  0.68475275  0.16653314     0.64300
H1852       H  0.87753247  0.71627968  0.20274181     0.12100
N1853       N  0.79090281  0.64192261  0.17668211     0.60900
H1854       H  0.83629581  0.60975418  0.14067802     0.08300
O1855       O  0.00067592  0.63071243  0.58905559    -0.40500
O1856       O  0.97364055  0.64955443  0.54315962    -0.39700
O1857       O  0.86750880  0.54943836  0.16113500    -0.39700
O1858       O  0.90735942  0.57005154  0.19398935    -0.37400
O1859       O  0.77274689  0.64565332  0.14973240    -0.38300
O1860       O  0.78304774  0.61985149  0.20007691    -0.34500
O1861       O  0.92945007  0.70971492  0.14634968    -0.35900
O1862       O  0.94134122  0.67595119  0.19080182    -0.40200
C1863       C  0.84882217  0.86209605  0.37164657    -0.13900
C1864       C  0.88121659  0.85810436  0.36289040     0.16500
C1865       C  0.88968285  0.83194200  0.33789170     0.02800
C1866       C  0.86560620  0.81164574  0.32077664    -0.12400
C1867       C  0.83291360  0.81650925  0.32841872    -0.03400
C1868       C  0.82476727  0.84164329  0.35492447     0.02000
C1869       C  0.90562297  0.87986421  0.38239504     0.08900
N1870       N  0.92252680  0.82637623  0.32881904     0.65200
H1871       H  0.87263932  0.79232027  0.30069093     0.18100
N1872       N  0.79219928  0.84782039  0.36433844     0.75700
H1873       H  0.84206021  0.88135353  0.39195446     0.09700
C1874       C  0.90566777  0.91621565  0.38080684     0.03400
C1875       C  0.92567181  0.93611976  0.40400781    -0.05400
C1876       C  0.94531345  0.92048334  0.42963602    -0.23700
C1877       C  0.94614109  0.88390848  0.43006234     0.12600
C1878       C  0.92652431  0.86414560  0.40639271    -0.12900
N1879       N  0.88481422  0.93331090  0.35652269     0.64300
H1880       H  0.92453429  0.96403455  0.40315784     0.12100
N1881       N  0.96598371  0.86618361  0.45493595     0.60900
H1882       H  0.92639453  0.83621165  0.40816953     0.08300
O1883       O  0.77907228  0.87416257  0.35205011    -0.40500
O1884       O  0.78026114  0.83318001  0.39177692    -0.39700
O1885       O  0.93637883  0.80057451  0.34139079    -0.39700
O1886       O  0.93511134  0.84239187  0.30260789    -0.37400
O1887       O  0.95411095  0.85626612  0.48468705    -0.38300
O1888       O  0.99100425  0.85215364  0.44309984    -0.34500
O1889       O  0.85975682  0.94698041  0.36880653    -0.35900
O1890       O  0.89496996  0.94142334  0.32541401    -0.40200
C1891       C  0.84375925  0.61312835  0.33346427    -0.13900
C1892       C  0.84897511  0.62345630  0.36956370     0.16500
C1893       C  0.83627325  0.65502582  0.38215844     0.02800
C1894       C  0.81884639  0.67543933  0.35837979    -0.12400
C1895       C  0.81295568  0.66434806  0.32252915    -0.03400
C1896       C  0.82558528  0.63276676  0.31019796     0.02000
C1897       C  0.87045529  0.60253389  0.39200772     0.08900
N1898       N  0.83987081  0.66607058  0.41921301     0.65200
H1899       H  0.80891405  0.69947423  0.36834575     0.18100
N1900       N  0.82137246  0.62077057  0.27359132     0.75700
H1901       H  0.85461256  0.58985950  0.32277637     0.09700
C1902       C  0.86546652  0.56652871  0.39588566     0.03400
C1903       C  0.88774039  0.54750736  0.41511681    -0.05400
C1904       C  0.91537066  0.56346278  0.43022451    -0.23700
C1905       C  0.92060913  0.59926528  0.42574348     0.12600
C1906       C  0.89832897  0.61828122  0.40660098    -0.12900
N1907       N  0.83774868  0.54894578  0.38094293     0.64300
H1908       H  0.88324295  0.51997436  0.41849804     0.12100
N1909       N  0.94743899  0.61718490  0.44207829     0.60900
H1910       H  0.90302091  0.64573227  0.40292637     0.08300
O1911       O  0.80187248  0.59589385  0.26734655    -0.40500
O1912       O  0.84329017  0.62723045  0.25080137    -0.39700
O1913       O  0.85893341  0.69096682  0.42698174    -0.39700
O1914       O  0.81887377  0.65688743  0.44210696    -0.37400
O1915       O  0.94558572  0.62665766  0.47496720    -0.38300
O1916       O  0.96799969  0.63170412  0.42185177    -0.34500
O1917       O  0.84072436  0.53042352  0.35264675    -0.35900
O1918       O  0.81309550  0.54484319  0.40053381    -0.40200
C1919       C  0.64459518  0.85443348  0.37703298    -0.13900
C1920       C  0.61219569  0.85058371  0.36791322     0.16500
C1921       C  0.60301592  0.82849782  0.33883661     0.02800
C1922       C  0.62662917  0.81162016  0.31826039    -0.12400
C1923       C  0.65960212  0.81635191  0.32648982    -0.03400
C1924       C  0.66819469  0.83777815  0.35681389     0.02000
C1925       C  0.58887552  0.87170939  0.38807037     0.08900
N1926       N  0.56985545  0.82357338  0.32962801     0.65200
H1927       H  0.61915908  0.79528809  0.29549412     0.18100
N1928       N  0.70088390  0.84524127  0.36614230     0.75700
H1929       H  0.65175844  0.87151443  0.39937937     0.09700
C1930       C  0.57589635  0.86055210  0.42117390     0.03400
C1931       C  0.55771352  0.88301024  0.44229487    -0.05400
C1932       C  0.55225861  0.91712056  0.43154187    -0.23700
C1933       C  0.56496113  0.92806315  0.39783007     0.12600
C1934       C  0.58292068  0.90521440  0.37641560    -0.12900
N1935       N  0.58247274  0.82712424  0.43470781     0.64300
H1936       H  0.54883148  0.87375258  0.46824608     0.12100
N1937       N  0.56167896  0.96264936  0.38588457     0.60900
H1938       H  0.59353297  0.91420649  0.35115593     0.08300
O1939       O  0.71380978  0.87297671  0.35520326    -0.40500
O1940       O  0.71292632  0.83024364  0.39287523    -0.39700
O1941       O  0.55246699  0.80290709  0.34766685    -0.39700
O1942       O  0.55687270  0.84403576  0.30811039    -0.37400
O1943       O  0.58459502  0.98414990  0.39099832    -0.38300
O1944       O  0.54030712  0.96904625  0.36281946    -0.34500
O1945       O  0.60640435  0.82351539  0.45522561    -0.35900
O1946       O  0.56085920  0.80369204  0.43317196    -0.40200
C1947       C  0.85782946  0.90547541  0.08010759    -0.13900
C1948       C  0.86542395  0.89848423  0.11624636     0.16500
C1949       C  0.89489450  0.91070895  0.13083377     0.02800
C1950       C  0.91659949  0.92904590  0.10897403    -0.12400
C1951       C  0.90962486  0.93545605  0.07237063    -0.03400
C1952       C  0.87957640  0.92377529  0.05802850     0.02000
C1953       C  0.84387229  0.87570609  0.13750494     0.08900
N1954       N  0.90351165  0.90371681  0.16752307     0.65200
H1955       H  0.93941509  0.93780153  0.12068333     0.18100
N1956       N  0.87149968  0.92836767  0.02069406     0.75700
H1957       H  0.83527733  0.89563610  0.06861377     0.09700
C1958       C  0.81937306  0.88898052  0.15952922     0.03400
C1959       C  0.80137139  0.86683630  0.18177105    -0.05400
C1960       C  0.80721879  0.83130089  0.18235903    -0.23700
C1961       C  0.83067407  0.81780661  0.15849733     0.12600
C1962       C  0.84886840  0.84016217  0.13662497    -0.12900
N1963       N  0.81302544  0.92499398  0.16018274     0.64300
H1964       H  0.78314751  0.87772988  0.19939632     0.12100
N1965       N  0.83808853  0.78203738  0.15794717     0.60900
H1966       H  0.86766866  0.82978180  0.11942939     0.08300
O1967       O  0.85199515  0.95132334  0.01235159    -0.40500
O1968       O  0.87826160  0.90525798  0.99755785    -0.39700
O1969       O  0.92233001  0.87953861  0.17387345    -0.39700
O1970       O  0.89792115  0.92573993  0.19221522    -0.37400
O1971       O  0.82346763  0.76177895  0.13598738    -0.38300
O1972       O  0.86409891  0.77286333  0.17195443    -0.34500
O1973       O  0.78999492  0.93593090  0.14170669    -0.35900
O1974       O  0.82567063  0.94421331  0.18453985    -0.40200
O1975       O  0.93322539  0.96784016  0.52414076    -0.79700
O1976       O  0.55861898  0.52354688  0.53846879    -0.79700
O1977       O  0.53191548  0.95136960  0.56300904    -0.79700
O1978       O  0.97726627  0.57212891  0.52649947    -0.79600
O1979       O  0.56832425  0.96339266  0.52163005    -0.79800
O1980       O  0.94950183  0.52694925  0.54087031    -0.79700
O1981       O  0.53594699  0.56955282  0.52150822    -0.79700
O1982       O  0.97100126  0.95478034  0.56247445    -0.79700
C1983       C  0.94149404  0.95526802  0.55431511     1.10000
C1984       C  0.55569174  0.55526209  0.54183861     1.09900
C1985       C  0.56090191  0.95076883  0.55231652     1.10100
C1986       C  0.95638793  0.55817287  0.54632733     1.09900
O1987       O  0.91924907  0.52577057  0.98085277    -0.79700
O1988       O  0.53815254  0.97424895  0.94845039    -0.79700
O1989       O  0.96529078  0.92837791  0.98456439    -0.79700
O1990       O  0.53834309  0.54173512  0.95069669    -0.79600
O1991       O  0.58358282  0.52134659  0.97270167    -0.79700
O1992       O  0.96309601  0.97479938  0.95201590    -0.79700
O1993       O  0.96340168  0.54932544  0.95623138    -0.79600
O1994       O  0.53229175  0.92871731  0.98196132    -0.79700
Co1995     Co  0.95991446  0.00376068  0.49805021     1.51500
Co1996     Co  0.54659465  0.50205818  0.99611477     1.51700
Co1997     Co  0.00219926  0.94546251  0.52353910     1.51600
Co1998     Co  0.00154081  0.55285551  0.99357779     1.51500
O1999       O  0.00369058  0.99799685  0.51374806    -1.41600
C2000       C  0.93218536  0.54635508  0.95839235     1.10000
C2001       C  0.54067883  0.94213778  0.95210379     1.10100
C2002       C  0.95923957  0.94254088  0.95469077     1.10000
C2003       C  0.56954128  0.54170338  0.95136510     1.10000
O2004       O  0.81785491  0.78193703  0.77233032    -0.79700
O2005       O  0.68661843  0.71721843  0.76452919    -0.79700
O2006       O  0.71443754  0.79772112  0.80815218    -0.79700
O2007       O  0.77505496  0.66665619  0.76956693    -0.79600
O2008       O  0.67884859  0.78691556  0.76496143    -0.79800
O2009       O  0.79821273  0.71533363  0.78905474    -0.79700
O2010       O  0.72935154  0.70881702  0.79876505    -0.79700
O2011       O  0.78053138  0.79393913  0.81121080    -0.79700
C2012       C  0.80984110  0.79505323  0.80249960     1.10000
C2013       C  0.69937050  0.70554111  0.79346537     1.09900
C2014       C  0.68565675  0.79769731  0.79707249     1.10100
C2015       C  0.79499626  0.68199051  0.79052969     1.09900
O2016       O  0.83117603  0.72948334  0.72760377    -0.79700
O2017       O  0.71258875  0.79187555  0.69611873    -0.79700
O2018       O  0.78394742  0.82398042  0.73857931    -0.79700
O2019       O  0.72456658  0.68131877  0.72723773    -0.79600
O2020       O  0.71757221  0.72352210  0.69131040    -0.79700
O2021       O  0.79077498  0.77856232  0.70234402    -0.79700
O2022       O  0.78664059  0.70312021  0.70931194    -0.79600
O2023       O  0.71939531  0.83154650  0.73869845    -0.79700
Co2024     Co  0.79169370  0.74730989  0.74395526     1.51500
Co2025     Co  0.70159613  0.75483767  0.72982340     1.51700
Co2026     Co  0.74955750  0.80830475  0.77365671     1.51600
Co2027     Co  0.75749329  0.70914262  0.75581182     1.51500
O2028       O  0.74577699  0.75942168  0.75200988    -1.41600
C2029       C  0.81764109  0.70676083  0.70752721     1.10000
C2030       C  0.71171800  0.82302456  0.70618383     1.10100
C2031       C  0.79356633  0.81077910  0.70853733     1.10000
C2032       C  0.71395746  0.69204076  0.69749825     1.10000
C2033       C  0.61991879  0.58049119  0.61207129    -0.13900
C2034       C  0.61828003  0.61635646  0.61275656     0.16500
C2035       C  0.59566798  0.63228156  0.59040731     0.02800
C2036       C  0.57482312  0.61195023  0.56846958    -0.12400
C2037       C  0.57642837  0.57575145  0.56769679    -0.03400
C2038       C  0.59961788  0.56020441  0.58991850     0.02000
C2039       C  0.64235635  0.63620995  0.63475552     0.08900
N2040       N  0.59360378  0.66898337  0.58964447     0.65200
H2041       H  0.55765134  0.62476193  0.55138534     0.18100
N2042       N  0.60409821  0.52393371  0.58957295     0.75700
H2043       H  0.63806261  0.56795541  0.62812663     0.09700
C2044       C  0.64625152  0.63020451  0.67220524     0.03400
C2045       C  0.67114955  0.64706673  0.69147062    -0.05400
C2046       C  0.69230353  0.67035277  0.67429189    -0.23700
C2047       C  0.68917165  0.67523745  0.63640366     0.12600
C2048       C  0.66435224  0.65811936  0.61717249    -0.12900
N2049       N  0.62435318  0.60803730  0.69131765     0.64300
H2050       H  0.67293624  0.64311285  0.72060940     0.12100
N2051       N  0.71184298  0.69573188  0.61645748     0.60900
H2052       H  0.66267589  0.66143854  0.58792940     0.08300
O2053       O  0.59294037  0.50666351  0.61567592    -0.40500
O2054       O  0.62355597  0.50752332  0.08823035    -0.39700
O2055       O  0.60482876  0.68511604  0.56274846    -0.39700
O2056       O  0.57460858  0.68392227  0.61110483    -0.37400
O2057       O  0.72923385  0.68088869  0.59320309    -0.38300
O2058       O  0.70680891  0.72737050  0.61286386    -0.34500
O2059       O  0.63389878  0.57971865  0.70319694    -0.35900
O2060       O  0.59812500  0.61976727  0.70266992    -0.40200
C2061       C  0.67310308  0.64999070  0.87356511    -0.13900
C2062       C  0.64543797  0.63332804  0.85928805     0.16500
C2063       C  0.63456342  0.64265708  0.82452984     0.02800
C2064       C  0.65144074  0.66776262  0.80479144    -0.12400
C2065       C  0.67978347  0.68360701  0.81834740    -0.03400
C2066       C  0.69041958  0.67472597  0.85350708     0.02000
C2067       C  0.62651062  0.60867492  0.88204705     0.08900
N2068       N  0.60722145  0.62564440  0.80809172     0.65200
H2069       H  0.64300460  0.67356867  0.77765522     0.18100
N2070       N  0.71840282  0.69081951  0.86954425     0.75700
H2071       H  0.68113864  0.64413198  0.90084139     0.09700
C2072       C  0.64038999  0.58006773  0.89873149     0.03400
C2073       C  0.62156225  0.55845092  0.92099421    -0.05400
C2074       C  0.58865313  0.56416792  0.92641513    -0.23700
C2075       C  0.57497707  0.59278977  0.90946118     0.12600
C2076       C  0.59393230  0.61476550  0.88811822    -0.12900
N2077       N  0.67321327  0.57190474  0.89233660     0.64300
H2078       H  0.63276638  0.53672497  0.93370788     0.12100
N2079       N  0.54191755  0.60050735  0.91409173     0.60900
H2080       H  0.58301160  0.63718860  0.87642313     0.08300
O2081       O  0.74378965  0.67391839  0.87199636    -0.40500
O2082       O  0.71551293  0.71791800  0.88861494    -0.39700
O2083       O  0.58252214  0.64262531  0.80133297    -0.39700
O2084       O  0.61009013  0.59597658  0.79400825    -0.37400
O2085       O  0.52214904  0.59169278  0.88942861    -0.38300
O2086       O  0.53391784  0.62196619  0.93841824    -0.34500
O2087       O  0.69352702  0.57630149  0.91756525    -0.35900
O2088       O  0.68028262  0.55368613  0.86487613    -0.40400
C2089       C  0.67373342  0.86184425  0.62256234    -0.13900
C2090       C  0.66302226  0.89309193  0.63662451     0.16500
C2091       C  0.67222211  0.90373345  0.67193525     0.02800
C2092       C  0.68984269  0.88156953  0.69381145    -0.12400
C2093       C  0.69858821  0.84872639  0.68067655    -0.03400
C2094       C  0.69126365  0.83972852  0.64397774     0.02000
C2095       C  0.63778209  0.91069242  0.61630642     0.08900
N2096       N  0.66307267  0.93664945  0.68599056     0.65200
H2097       H  0.69544475  0.88949259  0.72143077     0.18100
N2098       N  0.69811879  0.80665665  0.62885078     0.75700
H2099       H  0.66641202  0.85331415  0.59559247     0.09700
C2100       C  0.64350447  0.92337534  0.58128986     0.03400
C2101       C  0.61797973  0.93525003  0.56074594    -0.05400
C2102       C  0.58644989  0.93546639  0.57466475    -0.23700
C2103       C  0.58070296  0.92207264  0.60969844     0.12600
C2104       C  0.60635993  0.91001547  0.63012247    -0.12900
N2105       N  0.67525572  0.92496031  0.56651584     0.64300
H2106       H  0.62317722  0.94505012  0.53388221     0.12100
N2107       N  0.54904789  0.91963107  0.62466845     0.60900
H2108       H  0.60155155  0.89897119  0.65653195     0.08300
O2109       O  0.72340280  0.80304085  0.61036743    -0.40500
O2110       O  0.67532155  0.78473626  0.62540759    -0.39700
O2111       O  0.64114679  0.93847241  0.70958786    -0.39700
O2112       O  0.67355172  0.96384069  0.67115558    -0.37400
O2113       O  0.53221153  0.89246346  0.61928247    -0.38300
O2114       O  0.54082775  0.94088498  0.64908793    -0.34500
O2115       O  0.68321908  0.90332070  0.54235832    -0.35900
O2116       O  0.69265663  0.95170075  0.57197192    -0.40200
C2117       C  0.92735986  0.63214766  0.60673581    -0.13900
C2118       C  0.89886518  0.61770779  0.62097051     0.16500
C2119       C  0.89028468  0.58321596  0.61171426     0.02800
C2120       C  0.91010912  0.56402097  0.58871801    -0.12400
C2121       C  0.93843140  0.57855836  0.57390176    -0.03400
C2122       C  0.94711240  0.61310244  0.58347580     0.02000
C2123       C  0.87776033  0.63966704  0.64377640     0.08900
N2124       N  0.86139583  0.56731313  0.62520502     0.65200
H2125       H  0.90267888  0.53768741  0.58166757     0.18100
N2126       N  0.97565087  0.62950395  0.56968401     0.75700
H2127       H  0.93397356  0.65888404  0.61295791     0.09700
C2128       C  0.88958677  0.65729408  0.67505152     0.03400
C2129       C  0.86971210  0.67946862  0.69457514    -0.05400
C2130       C  0.83776189  0.68452101  0.68396613    -0.23700
C2131       C  0.82601667  0.66709547  0.65256586     0.12600
C2132       C  0.84602087  0.64507427  0.63273421    -0.12900
N2133       N  0.92146055  0.65222299  0.68799555     0.64300
H2134       H  0.87926581  0.69218472  0.71895080     0.12100
N2135       N  0.79464811  0.67318360  0.63906673     0.60900
H2136       H  0.83692358  0.63285599  0.60788682     0.08300
O2137       O  0.96998168  0.65435924  0.04400576    -0.40500
O2138       O  0.92472033  0.64238126  0.01632506    -0.39700
O2139       O  0.83752359  0.56318875  0.60427957    -0.39700
O2140       O  0.86230034  0.55050750  0.65424494    -0.37400
O2141       O  0.79110389  0.69678779  0.61632867    -0.38300
O2142       O  0.77270115  0.65046185  0.64297360    -0.34500
O2143       O  0.94253118  0.67595358  0.68447232    -0.35900
O2144       O  0.92634412  0.62823807  0.70992970    -0.40200
C2145       C  0.84971840  0.85685264  0.87172510    -0.13900
C2146       C  0.88079508  0.85990516  0.85740841     0.16500
C2147       C  0.88905402  0.83967212  0.82693524     0.02800
C2148       C  0.86601966  0.81733870  0.81091462    -0.12400
C2149       C  0.83432916  0.81495772  0.82432247    -0.03400
C2150       C  0.82647832  0.83482591  0.85556695     0.02000
C2151       C  0.90472715  0.88235337  0.87660075     0.08900
N2152       N  0.92021341  0.84289285  0.81085030     0.65200
H2153       H  0.87285788  0.80268982  0.78674924     0.18100
N2154       N  0.79480773  0.83433762  0.87039241     0.75700
H2155       H  0.84336954  0.87189087  0.89584175     0.09700
C2156       C  0.90070483  0.91822612  0.88009046     0.03400
C2157       C  0.92024636  0.93771968  0.90402739    -0.05400
C2158       C  0.94364193  0.92203701  0.92510255    -0.23700
C2159       C  0.94866606  0.88629090  0.92021219     0.12600
C2160       C  0.92940749  0.86694938  0.89579577    -0.12900
N2161       N  0.87602764  0.93494001  0.86059267     0.64300
H2162       H  0.91565178  0.96499276  0.90783244     0.12100
N2163       N  0.97251387  0.86894545  0.94040818     0.60900
H2164       H  0.93253029  0.83924763  0.89341028     0.08300
O2165       O  0.77725991  0.85982752  0.86514926    -0.40500
O2166       O  0.78800792  0.81400380  0.89587700    -0.39700
O2167       O  0.93995140  0.81903799  0.81450554    -0.39700
O2168       O  0.92535818  0.86552589  0.78712809    -0.37400
O2169       O  0.96488318  0.85575117  0.97043991    -0.38300
O2170       O  0.99712395  0.85847349  0.92400186    -0.34500
O2171       O  0.85103429  0.94412939  0.87717934    -0.35900
O2172       O  0.88221346  0.94706138  0.82967328    -0.40200
C2173       C  0.83907359  0.60917032  0.83462287    -0.13900
C2174       C  0.84502236  0.62290024  0.86945485     0.16500
C2175       C  0.83468099  0.65641803  0.87823949     0.02800
C2176       C  0.81900596  0.67569294  0.85200171    -0.12400
C2177       C  0.81292674  0.66185045  0.81715440    -0.03400
C2178       C  0.82326418  0.62822679  0.80848911     0.02000
C2179       C  0.86611650  0.60380964  0.89399555     0.08900
N2180       N  0.83927195  0.67082753  0.91391534     0.65200
H2181       H  0.81090476  0.70134085  0.85917797     0.18100
N2182       N  0.81999054  0.61400714  0.77253069     0.75700
H2183       H  0.84802237  0.58393985  0.82714003     0.09700
C2184       C  0.85744498  0.57091035  0.90703090     0.03400
C2185       C  0.87954536  0.55248177  0.92724946    -0.05400
C2186       C  0.91081013  0.56577240  0.93411955    -0.23700
C2187       C  0.91960080  0.59843414  0.91997327     0.12600
C2188       C  0.89714789  0.61708780  0.90055737    -0.12900
N2189       N  0.82625855  0.55597313  0.90009628     0.64300
H2190       H  0.87212598  0.52737654  0.93753866     0.12100
N2191       N  0.95126104  0.61299125  0.92399961     0.60900
H2192       H  0.90435903  0.64199296  0.88956126     0.08300
O2193       O  0.79939294  0.59014297  0.76641049    -0.40500
O2194       O  0.84211794  0.61941898  0.74969110    -0.39700
O2195       O  0.85978126  0.69499773  0.91894026    -0.39700
O2196       O  0.81846641  0.66475140  0.93810692    -0.37400
O2197       O  0.95903941  0.62795126  0.95352966    -0.38300
O2198       O  0.96694620  0.62015236  0.89564202    -0.34500
O2199       O  0.82292502  0.53256110  0.87603176    -0.35900
O2200       O  0.80397814  0.56070460  0.92276896    -0.40200
C2201       C  0.64239786  0.84277262  0.87583173    -0.13900
C2202       C  0.61380336  0.85200855  0.85911647     0.16500
C2203       C  0.60760251  0.84108841  0.82316637     0.02800
C2204       C  0.63058371  0.82210345  0.80392531    -0.12400
C2205       C  0.66013615  0.81376584  0.82005402    -0.03400
C2206       C  0.66546446  0.82388959  0.85685068     0.02000
C2207       C  0.59165297  0.87467602  0.87923672     0.08900
N2208       N  0.57819792  0.84958171  0.80582995     0.65200
H2209       H  0.62561522  0.81484023  0.77592026     0.18100
N2210       N  0.69450324  0.81628571  0.87531769     0.75700
H2211       H  0.64720961  0.85103496  0.90362624     0.09700
C2212       C  0.57121422  0.86142720  0.90626565     0.03400
C2213       C  0.55403216  0.88395178  0.92847037    -0.05400
C2214       C  0.55624302  0.91993703  0.92416427    -0.23700
C2215       C  0.57616568  0.93315909  0.89615637     0.12600
C2216       C  0.59358304  0.91041918  0.87404224    -0.12900
N2217       N  0.56836501  0.82514328  0.91212614     0.64300
H2218       H  0.53966233  0.87302398  0.95030097     0.12100
N2219       N  0.58154534  0.96941749  0.89199312     0.60900
H2220       H  0.60987602  0.92086439  0.85363644     0.08300
O2221       O  0.71511271  0.84024368  0.88072000    -0.40500
O2222       O  0.69530266  0.78969664  0.89456010    -0.39700
O2223       O  0.55283080  0.83233741  0.81266773    -0.39700
O2224       O  0.57640751  0.87764277  0.78914505    -0.37400
O2225       O  0.60703740  0.98334824  0.90455790    -0.38300
O2226       O  0.56557950  0.98515791  0.86862794    -0.34500
O2227       O  0.58294444  0.81219472  0.93846957    -0.35900
O2228       O  0.54646054  0.80770202  0.89604805    -0.40200
C2229       C  0.86295366  0.92341411  0.59731350    -0.13900
C2230       C  0.87461966  0.90074013  0.62312487     0.16500
C2231       C  0.90799551  0.89777089  0.62761573     0.02800
C2232       C  0.92908321  0.91684513  0.60585139    -0.12400
C2233       C  0.91766678  0.93864508  0.57883632    -0.03400
C2234       C  0.88407366  0.94217496  0.57496505     0.02000
C2235       C  0.85186470  0.87824894  0.64310215     0.08900
N2236       N  0.92084085  0.87500284  0.65376640     0.65200
H2237       H  0.95472564  0.91354422  0.60947411     0.18100
N2238       N  0.87091438  0.96392060  0.54808604     0.75700
H2239       H  0.83718349  0.92558492  0.59355503     0.09700
C2240       C  0.83020552  0.89172930  0.66863959     0.03400
C2241       C  0.81019200  0.86931061  0.68822553    -0.05400
C2242       C  0.81113692  0.83334802  0.68271915    -0.23700
C2243       C  0.83151691  0.82011909  0.65528778     0.12600
C2244       C  0.85176750  0.84264115  0.63606983    -0.12900
N2245       N  0.82922652  0.92797629  0.67607038     0.64300
H2246       H  0.79443055  0.88022606  0.70871531     0.12100
N2247       N  0.83257487  0.78401741  0.64700516     0.60900
H2248       H  0.86777860  0.83219554  0.61553366     0.08300
O2249       O  0.86076198  0.99312680  0.55750692    -0.40500
O2250       O  0.86254757  0.95098558  0.51771772    -0.39700
O2251       O  0.93095679  0.84605423  0.64336370    -0.39700
O2252       O  0.92868814  0.88671357  0.68481465    -0.37400
O2253       O  0.81459977  0.77139243  0.62228440    -0.38300
O2254       O  0.85605603  0.76700782  0.65786772    -0.34500
O2255       O  0.80688073  0.94517011  0.66277289    -0.35900
O2256       O  0.84601824  0.94095332  0.70164277    -0.40200
loop_ 
_geom_bond_atom_site_label_1 
_geom_bond_atom_site_label_2 
_geom_bond_distance 
_geom_bond_site_symmetry_2 
_ccdc_geom_bond_type 
O1            C9   1.268       .  A
O1          Co21   2.010   1_554  S
O2           C10   1.239       .  A
O2         Co304   1.949   1_554  S
O3           C11   1.266       .  A
O3        Co1151   1.978   1_455  S
O4           C12   1.254       .  A
O4         Co306   1.994   1_554  S
O5           C11   1.273       .  A
O5         Co868   2.008   1_554  S
O6           C12   1.250       .  A
O6         Co585   1.967   1_554  S
O7           C10   1.257       .  A
O7        Co1434   2.018   1_554  S
O8            C9   1.263       .  A
O8          Co23   1.969       .  S
C9          C259   1.478       .  S
C10          C63   1.489       .  S
C11         C128   1.485       .  S
C12         C147   1.489       .  S
O13          C26   1.268       .  A
O13        Co867   1.878       .  S
O14          C27   1.263       .  A
O14        Co586   1.992       .  S
O15          C28   1.266       .  A
O15        Co305   2.008       .  S
O16          C29   1.297       .  A
O16       Co1152   2.065       .  S
O17          C29   1.274       .  A
O17         Co22   1.905       .  S
O18          C28   1.262       .  A
O18        Co303   1.983       .  S
O19          C26   1.301       .  A
O19         Co24   2.096       .  S
O20          C27   1.268       .  A
O20       Co1433   2.003       .  S
Co21        O570   1.967   1_556  S
Co21        O859   1.875       .  S
Co21        O300   1.986       .  S
Co21         O25   1.927   1_556  S
Co22        O284   1.961       .  S
Co22        O851   2.016   1_545  S
Co22        O578   1.993   1_545  S
Co22       O1999   1.939   1_545  S
Co23       O1131   1.976       .  S
Co23        O297   2.009   1_554  S
Co23       O1430   1.998   1_554  S
Co23         O25   2.074       .  S
Co24        O286   2.001       .  S
Co24       O1417   2.007       .  S
Co24       O1144   2.069       .  S
Co24        O871   2.250   1_545  S
O25       Co1996   1.929   1_554  S
O25        Co870   2.250   1_554  S
C26         C212   1.487       .  S
C27         C240   1.492       .  S
C28         C184   1.485       .  S
C29         C100   1.492       .  S
O30          C38   1.260       .  A
O30         Co50   1.991       .  S
O31          C39   1.282       .  A
O31         Co51   2.032       .  S
O32          C40   1.264       .  A
O32         Co52   1.966       .  S
O33          C41   1.263       .  A
O33         Co53   1.891       .  S
O34          C40   1.277       .  A
O34         Co51   2.033       .  S
O35          C41   1.299       .  A
O35         Co50   2.111       .  S
O36          C39   1.268       .  A
O36         Co53   1.972       .  S
O37          C38   1.258       .  A
O37         Co52   1.986       .  S
C38         C175   1.480       .  S
C39          C91   1.481       .  S
C40         C231   1.497       .  S
C41         C203   1.478       .  S
O42          C55   1.260       .  A
O42         Co50   1.887       .  S
O43          C56   1.258       .  A
O43         Co51   1.959       .  S
O44          C57   1.280       .  A
O44         Co52   2.019       .  S
O45          C58   1.262       .  A
O45         Co53   2.002       .  S
O46          C58   1.251       .  A
O46         Co51   1.975       .  S
O47          C57   1.266       .  A
O47         Co50   1.965       .  S
O48          C55   1.297       .  A
O48         Co53   2.118       .  S
O49          C56   1.273       .  A
O49         Co52   2.033       .  S
Co50         O54   1.999       .  S
Co51         O54   2.014       .  S
Co52         O54   2.036       .  S
Co53         O54   2.017       .  S
C55         C156   1.483       .  S
C56         C119   1.493       .  S
C57         C268   1.482       .  S
C58          C72   1.476       .  S
C59          C60   1.391       .  A
C59          C64   1.389       .  A
C59          H69   1.088       .  S
C60          C65   1.481       .  S
C60          C61   1.414       .  A
C61          C62   1.404       .  A
C61          N66   1.428       .  S
C62          C63   1.405       .  A
C62          H67   1.087       .  S
C63          C64   1.418       .  A
C64          N68   1.421       .  S
C65          C70   1.414       .  A
C65          C74   1.398       .  A
N66          O81   1.262       .  A
N66          O82   1.261       .  A
N68          O79   1.261       .  A
N68         O362   1.261       .  A
C70          C71   1.395       .  A
C70          N75   1.429       .  S
C71          C72   1.400       .  A
C71          H76   1.088       .  S
C72          C73   1.415       .  A
C73          C74   1.397       .  A
C73          N77   1.428       .  S
C74          H78   1.088       .  S
N75          O85   1.262       .  A
N75          O86   1.261       .  A
N77          O83   1.262       .  A
N77          O84   1.258       .  A
O80         N350   1.261       .  A
C87          C88   1.404       .  A
C87          C92   1.404       .  A
C87          H97   1.089       .  S
C88          C93   1.485       .  S
C88          C89   1.410       .  A
C89          C90   1.396       .  A
C89          N94   1.429       .  S
C90          C91   1.402       .  A
C90          H95   1.090       .  S
C91          C92   1.414       .  A
C92          N96   1.429       .  S
C93          C98   1.409       .  A
C93         C102   1.399       .  A
N94         O109   1.262       .  A
N94         O110   1.262       .  A
N96         O107   1.262       .  A
N96         O108   1.262       .  A
C98          C99   1.403       .  A
C98         N103   1.428       .  S
C99         C100   1.407       .  A
C99         H104   1.085       .  S
C100        C101   1.417       .  A
C101        C102   1.399       .  A
C101        N105   1.426       .  S
C102        H106   1.087       .  S
N103        O113   1.262       .  A
N103        O114   1.261       .  A
N105        O111   1.262       .  A
N105        O112   1.261       .  A
C115        C116   1.393       .  A
C115        C120   1.394       .  A
C115        H125   1.082       .  S
C116        C121   1.475       .  S
C116        C117   1.405       .  A
C117        C118   1.406       .  A
C117        N122   1.429       .  S
C118        C119   1.411       .  A
C118        H123   1.080       .  S
C119        C120   1.420       .  A
C120        N124   1.424       .  S
C121        C126   1.404       .  A
C121        C130   1.401       .  A
N122        O137   1.262       .  A
N122        O138   1.262       .  A
N124        O135   1.262       .  A
N124        O136   1.262       .  A
C126        C127   1.396       .  A
C126        N131   1.428       .  S
C127        C128   1.407       .  A
C127        H132   1.085       .  S
C128        C129   1.417       .  A
C129        C130   1.400       .  A
C129        N133   1.429       .  S
C130        H134   1.085       .  S
N131        O141   1.262       .  A
N131        O142   1.262       .  A
N133        O139   1.262       .  A
N133        O140   1.262       .  A
C143        C144   1.402       .  A
C143        C148   1.401       .  A
C143        H153   1.086       .  S
C144        C149   1.484       .  S
C144        C145   1.407       .  A
C145        C146   1.399       .  A
C145        N150   1.429       .  S
C146        C147   1.407       .  A
C146        H151   1.085       .  S
C147        C148   1.417       .  A
C148        N152   1.429       .  S
C149        C154   1.407       .  A
C149        C158   1.404       .  A
N150        O165   1.262       .  A
N150        O166   1.262       .  A
N152        O445   1.262       .  A
N152        O446   1.262       .  A
C154        C155   1.396       .  A
C154        N159   1.429       .  S
C155        C156   1.405       .  A
C155        H160   1.086       .  S
C156        C157   1.409       .  A
C157        C158   1.404       .  A
C157        N161   1.425       .  S
C158        H162   1.086       .  S
N159        O169   1.262       .  A
N159        O170   1.262       .  A
N161        O167   1.261       .  A
N161        O168   1.262       .  A
O163        N434   1.262       .  A
O164        N434   1.262       .  A
C171        C172   1.404       .  A
C171        C176   1.401       .  A
C171        H181   1.089       .  S
C172        C177   1.481       .  S
C172        C173   1.408       .  A
C173        C174   1.398       .  A
C173        N178   1.428       .  S
C174        C175   1.405       .  A
C174        H179   1.089       .  S
C175        C176   1.411       .  A
C176        N180   1.428       .  S
C177        C182   1.410       .  A
C177        C186   1.399       .  A
N178        O193   1.262       .  A
N178        O194   1.262       .  A
N180        O191   1.262       .  A
N180        O192   1.262       .  A
C182        C183   1.402       .  A
C182        N187   1.429       .  S
C183        C184   1.406       .  A
C183        H188   1.086       .  S
C184        C185   1.417       .  A
C185        C186   1.398       .  A
C185        N189   1.429       .  S
C186        H190   1.086       .  S
N187        O197   1.262       .  A
N187        O198   1.262       .  A
N189        O195   1.262       .  A
N189        O196   1.261       .  A
C199        C200   1.399       .  A
C199        C204   1.396       .  A
C199        H209   1.087       .  S
C200        C205   1.485       .  S
C200        C201   1.415       .  A
C201        C202   1.403       .  A
C201        N206   1.429       .  S
C202        C203   1.401       .  A
C202        H207   1.087       .  S
C203        C204   1.415       .  A
C204        N208   1.429       .  S
C205        C210   1.411       .  A
C205        C214   1.397       .  A
N206        O221   1.262       .  A
N206        O222   1.262       .  A
N208        O219   1.262       .  A
N208        O220   1.262       .  A
C210        C211   1.400       .  A
C210        N215   1.429       .  S
C211        C212   1.406       .  A
C211        H216   1.088       .  S
C212        C213   1.418       .  A
C213        C214   1.400       .  A
C213        N217   1.428       .  S
C214        H218   1.088       .  S
N215        O225   1.262       .  A
N215        O226   1.262       .  A
N217        O223   1.261       .  A
N217        O224   1.262       .  A
C227        C228   1.397       .  A
C227        C232   1.399       .  A
C227        H237   1.083       .  S
C228        C233   1.479       .  S
C228        C229   1.404       .  A
C229        C230   1.406       .  A
C229        N234   1.429       .  S
C230        C231   1.413       .  A
C230        H235   1.082       .  S
C231        C232   1.420       .  A
C232        N236   1.429       .  S
C233        C238   1.402       .  A
C233        C242   1.403       .  A
N234        O249   1.262       .  A
N234        O250   1.262       .  A
N236        O247   1.262       .  A
N236        O248   1.262       .  A
C238        C239   1.395       .  A
C238        N243   1.429       .  S
C239        C240   1.409       .  A
C239        H244   1.086       .  S
C240        C241   1.416       .  A
C241        C242   1.406       .  A
C241        N245   1.428       .  S
C242        H246   1.087       .  S
N243        O253   1.262       .  A
N243        O254   1.262       .  A
N245        O251   1.262       .  A
N245        O252   1.262       .  A
C255        C256   1.402       .  A
C255        C260   1.402       .  A
C255        H265   1.087       .  S
C256        C261   1.476       .  S
C256        C257   1.408       .  A
C257        C258   1.393       .  A
C257        N262   1.430       .  S
C258        C259   1.404       .  A
C258        H263   1.087       .  S
C259        C260   1.414       .  A
C260        N264   1.429       .  S
C261        C266   1.406       .  A
C261        C270   1.400       .  A
N262        O277   1.262       .  A
N262        O278   1.262       .  A
N264        O275   1.262       .  A
N264        O276   1.262       .  A
C266        C267   1.395       .  A
C266        N271   1.428       .  S
C267        C268   1.405       .  A
C267        H272   1.086       .  S
C268        C269   1.417       .  A
C269        C270   1.398       .  A
C269        N273   1.429       .  S
C270        H274   1.087       .  S
N271        O281   1.262       .  A
N271        O282   1.262       .  A
N273        O279   1.262       .  A
N273        O280   1.262       .  A
O283        C291   1.270       .  A
O283       Co303   2.013       .  S
O284        C292   1.242       .  A
O285        C293   1.264       .  A
O285      Co1433   1.970       .  S
O286        C294   1.255       .  A
O287        C293   1.275       .  A
O287       Co586   2.017       .  S
O288        C294   1.249       .  A
O288       Co867   1.973       .  S
O289        C292   1.253       .  A
O289      Co1152   1.995       .  S
O290        C291   1.266       .  A
O290       Co305   1.978       .  S
C291        C541   1.489       .  S
C292        C345   1.483       .  S
C293        C410   1.486       .  S
C294        C429   1.488       .  S
O295        C308   1.267       .  A
O295       Co585   1.868       .  S
O296        C309   1.261       .  A
O296       Co868   1.987       .  S
O297        C310   1.267       .  A
O298        C311   1.293       .  A
O298      Co1434   2.058       .  S
O299        C311   1.274       .  A
O299       Co304   1.911       .  S
O300        C310   1.266       .  A
O301        C308   1.303       .  A
O301       Co306   2.103       .  S
O302        C309   1.269       .  A
O302      Co1151   2.008   1_456  S
Co303       O852   1.967       .  S
Co303       O577   1.877       .  S
Co303       O307   1.917       .  S
Co304       O569   2.012   1_546  S
Co304       O860   1.988   1_545  S
Co304      O1717   1.929   1_446  S
Co305      O1413   1.978       .  S
Co305      O1148   2.006       .  S
Co305       O307   2.081       .  S
Co306      O1135   2.009   1_556  S
Co306      O1426   2.070       .  S
Co306       O589   2.254   1_546  S
O307      Co1714   1.941       .  S
O307       Co588   2.251       .  S
C308        C494   1.489       .  S
C309        C522   1.491       .  S
C310        C466   1.483       .  S
C311        C382   1.489       .  S
O312        C320   1.263       .  A
O312       Co332   1.994       .  S
O313        C321   1.282       .  A
O313       Co333   2.034       .  S
O314        C322   1.265       .  A
O314       Co334   1.972       .  S
O315        C323   1.262       .  A
O315       Co335   1.881       .  S
O316        C322   1.277       .  A
O316       Co333   2.035       .  S
O317        C323   1.300       .  A
O317       Co332   2.117       .  S
O318        C321   1.267       .  A
O318       Co335   1.971       .  S
O319        C320   1.262       .  A
O319       Co334   1.989       .  S
C320        C457   1.491       .  S
C321        C373   1.487       .  S
C322        C513   1.501       .  S
C323        C485   1.477       .  S
O324        C337   1.261       .  A
O324       Co332   1.882       .  S
O325        C338   1.258       .  A
O325       Co333   1.955       .  S
O326        C339   1.279       .  A
O326       Co334   2.018       .  S
O327        C340   1.260       .  A
O327       Co335   1.997       .  S
O328        C340   1.253       .  A
O328       Co333   1.979       .  S
O329        C339   1.269       .  A
O329       Co332   1.974       .  S
O330        C337   1.298       .  A
O330       Co335   2.124       .  S
O331        C338   1.274       .  A
O331       Co334   2.036       .  S
Co332       O336   1.994       .  S
Co333       O336   2.016       .  S
Co334       O336   2.044       .  S
Co335       O336   2.020       .  S
C337        C438   1.494       .  S
C338        C401   1.492       .  S
C339        C550   1.488       .  S
C340        C354   1.472       .  S
C341        C342   1.396       .  A
C341        C346   1.394       .  A
C341        H351   1.088       .  S
C342        C347   1.478       .  S
C342        C343   1.410       .  A
C343        C344   1.399       .  A
C343        N348   1.428       .  S
C344        C345   1.405       .  A
C344        H349   1.087       .  S
C345        C346   1.416       .  A
C346        N350   1.425       .  S
C347        C352   1.411       .  A
C347        C356   1.401       .  A
N348        O363   1.262       .  A
N348        O364   1.261       .  A
N350        O361   1.262       .  A
C352        C353   1.394       .  A
C352        N357   1.429       .  S
C353        C354   1.401       .  A
C353        H358   1.087       .  S
C354        C355   1.414       .  A
C355        C356   1.399       .  A
C355        N359   1.430       .  S
C356        H360   1.087       .  S
N357        O367   1.262       .  A
N357        O368   1.262       .  A
N359        O365   1.261       .  A
N359        O366   1.259       .  A
C369        C370   1.404       .  A
C369        C374   1.405       .  A
C369        H379   1.086       .  S
C370        C375   1.488       .  S
C370        C371   1.410       .  A
C371        C372   1.398       .  A
C371        N376   1.429       .  S
C372        C373   1.404       .  A
C372        H377   1.086       .  S
C373        C374   1.416       .  A
C374        N378   1.429       .  S
C375        C380   1.411       .  A
C375        C384   1.399       .  A
N376        O391   1.262       .  A
N376        O392   1.262       .  A
N378        O389   1.262       .  A
N378        O390   1.262       .  A
C380        C381   1.404       .  A
C380        N385   1.428       .  S
C381        C382   1.406       .  A
C381        H386   1.086       .  S
C382        C383   1.418       .  A
C383        C384   1.399       .  A
C383        N387   1.429       .  S
C384        H388   1.086       .  S
N385        O395   1.262       .  A
N385        O396   1.262       .  A
N387        O393   1.261       .  A
N387        O394   1.262       .  A
C397        C398   1.394       .  A
C397        C402   1.395       .  A
C397        H407   1.082       .  S
C398        C403   1.477       .  S
C398        C399   1.407       .  A
C399        C400   1.407       .  A
C399        N404   1.429       .  S
C400        C401   1.410       .  A
C400        H405   1.080       .  S
C401        C402   1.419       .  A
C402        N406   1.425       .  S
C403        C408   1.405       .  A
C403        C412   1.400       .  A
N404        O419   1.262       .  A
N404        O420   1.262       .  A
N406        O417   1.262       .  A
N406        O418   1.261       .  A
C408        C409   1.399       .  A
C408        N413   1.428       .  S
C409        C410   1.406       .  A
C409        H414   1.084       .  S
C410        C411   1.418       .  A
C411        C412   1.398       .  A
C411        N415   1.430       .  S
C412        H416   1.085       .  S
N413        O423   1.262       .  A
N413        O424   1.262       .  A
N415        O421   1.262       .  A
N415        O422   1.262       .  A
C425        C426   1.401       .  A
C425        C430   1.399       .  A
C425        H435   1.086       .  S
C426        C431   1.491       .  S
C426        C427   1.412       .  A
C427        C428   1.405       .  A
C427        N432   1.428       .  S
C428        C429   1.406       .  A
C428        H433   1.086       .  S
C429        C430   1.415       .  A
C430        N434   1.427       .  S
C431        C436   1.409       .  A
C431        C440   1.406       .  A
N432        O447   1.262       .  A
N432        O448   1.262       .  A
C436        C437   1.396       .  A
C436        N441   1.430       .  S
C437        C438   1.407       .  A
C437        H442   1.085       .  S
C438        C439   1.417       .  A
C439        C440   1.409       .  A
C439        N443   1.429       .  S
C440        H444   1.085       .  S
N441        O451   1.262       .  A
N441        O452   1.262       .  A
N443        O449   1.259       .  A
N443        O450   1.260       .  A
C453        C454   1.399       .  A
C453        C458   1.401       .  A
C453        H463   1.089       .  S
C454        C459   1.482       .  S
C454        C455   1.407       .  A
C455        C456   1.400       .  A
C455        N460   1.428       .  S
C456        C457   1.409       .  A
C456        H461   1.088       .  S
C457        C458   1.416       .  A
C458        N462   1.426       .  S
C459        C464   1.409       .  A
C459        C468   1.397       .  A
N460        O475   1.262       .  A
N460        O476   1.262       .  A
N462        O473   1.261       .  A
N462        O474   1.262       .  A
C464        C465   1.401       .  A
C464        N469   1.428       .  S
C465        C466   1.404       .  A
C465        H470   1.086       .  S
C466        C467   1.419       .  A
C467        C468   1.401       .  A
C467        N471   1.429       .  S
C468        H472   1.086       .  S
N469        O479   1.262       .  A
N469        O480   1.262       .  A
N471        O477   1.262       .  A
N471        O478   1.262       .  A
C481        C482   1.395       .  A
C481        C486   1.392       .  A
C481        H491   1.087       .  S
C482        C487   1.480       .  S
C482        C483   1.414       .  A
C483        C484   1.402       .  A
C483        N488   1.429       .  S
C484        C485   1.402       .  A
C484        H489   1.087       .  S
C485        C486   1.415       .  A
C486        N490   1.427       .  S
C487        C492   1.410       .  A
C487        C496   1.395       .  A
N488        O503   1.262       .  A
N488        O504   1.261       .  A
N490        O501   1.262       .  A
N490        O502   1.262       .  A
C492        C493   1.398       .  A
C492        N497   1.429       .  S
C493        C494   1.407       .  A
C493        H498   1.088       .  S
C494        C495   1.416       .  A
C495        C496   1.398       .  A
C495        N499   1.422       .  S
C496        H500   1.088       .  S
N497        O507   1.262       .  A
N497        O508   1.262       .  A
N499        O505   1.262       .  A
N499        O506   1.262       .  A
C509        C510   1.396       .  A
C509        C514   1.400       .  A
C509        H519   1.084       .  S
C510        C515   1.482       .  S
C510        C511   1.404       .  A
C511        C512   1.407       .  A
C511        N516   1.429       .  S
C512        C513   1.413       .  A
C512        H517   1.082       .  S
C513        C514   1.420       .  A
C514        N518   1.425       .  S
C515        C520   1.403       .  A
C515        C524   1.403       .  A
N516        O531   1.262       .  A
N516        O532   1.262       .  A
N518        O529   1.261       .  A
N518        O530   1.262       .  A
C520        C521   1.395       .  A
C520        N525   1.428       .  S
C521        C522   1.408       .  A
C521        H526   1.086       .  S
C522        C523   1.417       .  A
C523        C524   1.406       .  A
C523        N527   1.428       .  S
C524        H528   1.087       .  S
N525        O535   1.262       .  A
N525        O536   1.262       .  A
N527        O533   1.262       .  A
N527        O534   1.262       .  A
C537        C538   1.399       .  A
C537        C542   1.403       .  A
C537        H547   1.087       .  S
C538        C543   1.477       .  S
C538        C539   1.406       .  A
C539        C540   1.398       .  A
C539        N544   1.429       .  S
C540        C541   1.407       .  A
C540        H545   1.086       .  S
C541        C542   1.418       .  A
C542        N546   1.429       .  S
C543        C548   1.405       .  A
C543        C552   1.400       .  A
N544        O559   1.262       .  A
N544        O560   1.262       .  A
N546        O557   1.262       .  A
N546        O558   1.262       .  A
C548        C549   1.398       .  A
C548        N553   1.428       .  S
C549        C550   1.408       .  A
C549        H554   1.086       .  S
C550        C551   1.417       .  A
C551        C552   1.401       .  A
C551        N555   1.429       .  S
C552        H556   1.087       .  S
N553        O563   1.262       .  A
N553        O564   1.262       .  A
N555        O561   1.262       .  A
N555        O562   1.262       .  A
O565        C573   1.268       .  A
O565       Co585   2.014   1_564  S
O566        C574   1.239       .  A
O566       Co868   1.952   1_554  S
O567        C575   1.265       .  A
O567      Co1715   1.975   1_455  S
O568        C576   1.253       .  A
O568       Co870   1.994   1_554  S
O569        C575   1.275       .  A
O570        C576   1.249       .  A
O571        C574   1.256       .  A
O571      Co1998   2.008   1_554  S
O572        C573   1.265       .  A
O572       Co587   1.977       .  S
C573        C823   1.480       .  S
C574        C627   1.484       .  S
C575        C692   1.485       .  S
C576        C711   1.489       .  S
O577        C590   1.269       .  A
O578        C591   1.263       .  A
O579        C592   1.265       .  A
O579       Co869   2.004       .  S
O580        C593   1.298       .  A
O580      Co1716   2.067       .  S
O581        C593   1.275       .  A
O581       Co586   1.906       .  S
O582        C592   1.266       .  A
O582       Co867   1.987   1_565  S
O583        C590   1.300       .  A
O583       Co588   2.093       .  S
O584        C591   1.269       .  A
O584      Co1997   2.005       .  S
Co585       O864   1.986   1_545  S
Co585       O589   1.923   1_546  S
Co586       O848   1.960       .  S
Co586      O1435   1.934       .  S
Co587      O1695   1.978       .  S
Co587       O861   2.008   1_554  S
Co587      O1994   2.005   1_554  S
Co587       O589   2.078       .  S
Co588       O850   1.992       .  S
Co588      O1981   2.009       .  S
Co588      O1708   2.052       .  S
O589      Co1432   1.925   1_564  S
C590        C776   1.484       .  S
C591        C804   1.493       .  S
C592        C748   1.483       .  S
C593        C664   1.493       .  S
O594        C602   1.261       .  A
O594       Co614   1.996       .  S
O595        C603   1.281       .  A
O595       Co615   2.035       .  S
O596        C604   1.265       .  A
O596       Co616   1.971       .  S
O597        C605   1.262       .  A
O597       Co617   1.886       .  S
O598        C604   1.277       .  A
O598       Co615   2.033       .  S
O599        C605   1.300       .  A
O599       Co614   2.114       .  S
O600        C603   1.266       .  A
O600       Co617   1.972       .  S
O601        C602   1.259       .  A
O601       Co616   1.983       .  S
C602        C739   1.490       .  S
C603        C655   1.485       .  S
C604        C795   1.500       .  S
C605        C767   1.484       .  S
O606        C619   1.261       .  A
O606       Co614   1.887       .  S
O607        C620   1.258       .  A
O607       Co615   1.959       .  S
O608        C621   1.280       .  A
O608       Co616   2.023       .  S
O609        C622   1.262       .  A
O609       Co617   2.005       .  S
O610        C622   1.253       .  A
O610       Co615   1.977       .  S
O611        C621   1.268       .  A
O611       Co614   1.968       .  S
O612        C619   1.298       .  A
O612       Co617   2.120       .  S
O613        C620   1.273       .  A
O613       Co616   2.032       .  S
Co614       O618   2.007       .  S
Co615       O618   2.022       .  S
Co616       O618   2.041       .  S
Co617       O618   2.017       .  S
C619        C720   1.485       .  S
C620        C683   1.494       .  S
C621        C832   1.484       .  S
C622        C636   1.478       .  S
C623        C624   1.394       .  A
C623        C628   1.393       .  A
C623        H633   1.087       .  S
C624        C629   1.477       .  S
C624        C625   1.411       .  A
C625        C626   1.400       .  A
C625        N630   1.428       .  S
C626        C627   1.404       .  A
C626        H631   1.086       .  S
C627        C628   1.418       .  A
C628        N632   1.425       .  S
C629        C634   1.410       .  A
C629        C638   1.397       .  A
N630        O645   1.262       .  A
N630        O646   1.261       .  A
N632        O643   1.262       .  A
N632        O926   1.262       .  A
C634        C635   1.397       .  A
C634        N639   1.429       .  S
C635        C636   1.403       .  A
C635        H640   1.086       .  S
C636        C637   1.415       .  A
C637        C638   1.397       .  A
C637        N641   1.426       .  S
C638        H642   1.086       .  S
N639        O649   1.262       .  A
N639        O650   1.261       .  A
N641        O647   1.261       .  A
N641        O648   1.258       .  A
O644        N914   1.261       .  A
C651        C652   1.403       .  A
C651        C656   1.405       .  A
C651        H661   1.087       .  S
C652        C657   1.487       .  S
C652        C653   1.409       .  A
C653        C654   1.398       .  A
C653        N658   1.429       .  S
C654        C655   1.403       .  A
C654        H659   1.087       .  S
C655        C656   1.415       .  A
C656        N660   1.428       .  S
C657        C662   1.410       .  A
C657        C666   1.399       .  A
N658        O673   1.262       .  A
N658        O674   1.262       .  A
N660        O671   1.262       .  A
N660        O672   1.261       .  A
C662        C663   1.404       .  A
C662        N667   1.428       .  S
C663        C664   1.408       .  A
C663        H668   1.086       .  S
C664        C665   1.417       .  A
C665        C666   1.399       .  A
C665        N669   1.426       .  S
C666        H670   1.087       .  S
N667        O677   1.262       .  A
N667        O678   1.262       .  A
N669        O675   1.262       .  A
N669        O676   1.262       .  A
C679        C680   1.392       .  A
C679        C684   1.393       .  A
C679        H689   1.082       .  S
C680        C685   1.476       .  S
C680        C681   1.406       .  A
C681        C682   1.408       .  A
C681        N686   1.429       .  S
C682        C683   1.412       .  A
C682        H687   1.080       .  S
C683        C684   1.419       .  A
C684        N688   1.423       .  S
C685        C690   1.404       .  A
C685        C694   1.401       .  A
N686        O701   1.262       .  A
N686        O702   1.262       .  A
N688        O699   1.262       .  A
N688        O700   1.262       .  A
C690        C691   1.395       .  A
C690        N695   1.428       .  S
C691        C692   1.406       .  A
C691        H696   1.084       .  S
C692        C693   1.419       .  A
C693        C694   1.401       .  A
C693        N697   1.430       .  S
C694        H698   1.085       .  S
N695        O705   1.262       .  A
N695        O706   1.262       .  A
N697        O703   1.262       .  A
N697        O704   1.262       .  A
C707        C708   1.403       .  A
C707        C712   1.402       .  A
C707        H717   1.086       .  S
C708        C713   1.485       .  S
C708        C709   1.408       .  A
C709        C710   1.399       .  A
C709        N714   1.429       .  S
C710        C711   1.406       .  A
C710        H715   1.085       .  S
C711        C712   1.417       .  A
C712        N716   1.429       .  S
C713        C718   1.408       .  A
C713        C722   1.403       .  A
N714        O729   1.262       .  A
N714        O730   1.262       .  A
N716       O1009   1.262       .  A
N716       O1010   1.262       .  A
C718        C719   1.398       .  A
C718        N723   1.429       .  S
C719        C720   1.406       .  A
C719        H724   1.086       .  S
C720        C721   1.410       .  A
C721        C722   1.403       .  A
C721        N725   1.424       .  S
C722        H726   1.086       .  S
N723        O733   1.262       .  A
N723        O734   1.262       .  A
N725        O731   1.261       .  A
N725        O732   1.262       .  A
O727        N998   1.262       .  A
O728        N998   1.262       .  A
C735        C736   1.398       .  A
C735        C740   1.398       .  A
C735        H745   1.089       .  S
C736        C741   1.483       .  S
C736        C737   1.409       .  A
C737        C738   1.402       .  A
C737        N742   1.428       .  S
C738        C739   1.407       .  A
C738        H743   1.088       .  S
C739        C740   1.415       .  A
C740        N744   1.424       .  S
C741        C746   1.412       .  A
C741        C750   1.398       .  A
N742        O757   1.262       .  A
N742        O758   1.262       .  A
N744        O755   1.261       .  A
N744        O756   1.262       .  A
C746        C747   1.401       .  A
C746        N751   1.428       .  S
C747        C748   1.403       .  A
C747        H752   1.087       .  S
C748        C749   1.419       .  A
C749        C750   1.399       .  A
C749        N753   1.430       .  S
C750        H754   1.087       .  S
N751        O761   1.262       .  A
N751        O762   1.261       .  A
N753        O759   1.262       .  A
N753        O760   1.261       .  A
C763        C764   1.402       .  A
C763        C768   1.398       .  A
C763        H773   1.087       .  S
C764        C769   1.489       .  S
C764        C765   1.412       .  A
C765        C766   1.403       .  A
C765        N770   1.428       .  S
C766        C767   1.404       .  A
C766        H771   1.087       .  S
C767        C768   1.416       .  A
C768        N772   1.430       .  S
C769        C774   1.411       .  A
C769        C778   1.405       .  A
N770        O785   1.262       .  A
N770        O786   1.262       .  A
N772        O783   1.262       .  A
N772        O784   1.262       .  A
C774        C775   1.394       .  A
C774        N779   1.429       .  S
C775        C776   1.404       .  A
C775        H780   1.088       .  S
C776        C777   1.413       .  A
C777        C778   1.405       .  A
C777        N781   1.429       .  S
C778        H782   1.088       .  S
N779        O789   1.262       .  A
N779        O790   1.262       .  A
N781        O787   1.261       .  A
N781        O788   1.262       .  A
C791        C792   1.396       .  A
C791        C796   1.399       .  A
C791        H801   1.084       .  S
C792        C797   1.482       .  S
C792        C793   1.404       .  A
C793        C794   1.407       .  A
C793        N798   1.428       .  S
C794        C795   1.413       .  A
C794        H799   1.082       .  S
C795        C796   1.420       .  A
C796        N800   1.426       .  S
C797        C802   1.403       .  A
C797        C806   1.404       .  A
N798        O813   1.262       .  A
N798        O814   1.262       .  A
N800        O811   1.260       .  A
N800        O812   1.261       .  A
C802        C803   1.395       .  A
C802        N807   1.429       .  S
C803        C804   1.409       .  A
C803        H808   1.086       .  S
C804        C805   1.417       .  A
C805        C806   1.407       .  A
C805        N809   1.428       .  S
C806        H810   1.087       .  S
N807        O817   1.262       .  A
N807        O818   1.262       .  A
N809        O815   1.262       .  A
N809        O816   1.262       .  A
C819        C820   1.401       .  A
C819        C824   1.402       .  A
C819        H829   1.086       .  S
C820        C825   1.477       .  S
C820        C821   1.408       .  A
C821        C822   1.398       .  A
C821        N826   1.429       .  S
C822        C823   1.403       .  A
C822        H827   1.087       .  S
C823        C824   1.415       .  A
C824        N828   1.429       .  S
C825        C830   1.406       .  A
C825        C834   1.400       .  A
N826        O841   1.262       .  A
N826        O842   1.262       .  A
N828        O839   1.262       .  A
N828        O840   1.262   1_554  A
C830        C831   1.398       .  A
C830        N835   1.428       .  S
C831        C832   1.406       .  A
C831        H836   1.086       .  S
C832        C833   1.417       .  A
C833        C834   1.400       .  A
C833        N837   1.429       .  S
C834        H838   1.086       .  S
N835        O845   1.262       .  A
N835        O846   1.261       .  A
N837        O843   1.262       .  A
N837        O844   1.262       .  A
O847        C855   1.269       .  A
O847       Co867   2.007   1_565  S
O848        C856   1.241       .  A
O849        C857   1.264       .  A
O849      Co1997   1.971       .  S
O850        C858   1.252       .  A
O851        C857   1.273       .  A
O852        C858   1.247       .  A
O853        C856   1.253       .  A
O853      Co1716   1.999       .  S
O854        C855   1.267       .  A
O854       Co869   1.976       .  S
C855       C1105   1.483       .  S
C856        C909   1.485       .  S
C857        C974   1.486       .  S
C858        C993   1.483       .  S
O859        C872   1.267       .  A
O860        C873   1.260       .  A
O861        C874   1.267       .  A
O862        C875   1.300       .  A
O862      Co1998   2.073       .  S
O863        C875   1.273       .  A
O863       Co868   1.902       .  S
O864        C874   1.265       .  A
O865        C872   1.301       .  A
O865       Co870   2.092       .  S
O866        C873   1.268       .  A
O866      Co1715   2.005   1_456  S
Co867       O871   1.924   1_545  S
Co868      O1153   1.924   1_456  S
Co869      O1977   1.985       .  S
Co869      O1712   1.998       .  S
Co869       O871   2.081       .  S
Co870      O1699   2.000   1_556  S
Co870      O1990   2.067       .  S
O871      Co1150   1.935   1_565  S
C872       C1058   1.482       .  S
C873       C1086   1.489       .  S
C874       C1030   1.489       .  S
C875        C946   1.495       .  S
O876        C884   1.263       .  A
O876       Co896   2.000       .  S
O877        C885   1.283       .  A
O877       Co897   2.038       .  S
O878        C886   1.263       .  A
O878       Co898   1.964       .  S
O879        C887   1.262       .  A
O879       Co899   1.884       .  S
O880        C886   1.277       .  A
O880       Co897   2.034       .  S
O881        C887   1.300       .  A
O881       Co896   2.117       .  S
O882        C885   1.267       .  A
O882       Co899   1.973       .  S
O883        C884   1.260       .  A
O883       Co898   1.983       .  S
C884       C1021   1.488       .  S
C885        C937   1.488       .  S
C886       C1077   1.498       .  S
C887       C1049   1.477       .  S
O888        C901   1.262       .  A
O888       Co896   1.884       .  S
O889        C902   1.260       .  A
O889       Co897   1.961       .  S
O890        C903   1.277       .  A
O890       Co898   2.010       .  S
O891        C904   1.260       .  A
O891       Co899   1.998       .  S
O892        C904   1.252       .  A
O892       Co897   1.978       .  S
O893        C903   1.269       .  A
O893       Co896   1.976       .  S
O894        C901   1.296       .  A
O894       Co899   2.116       .  S
O895        C902   1.274       .  A
O895       Co898   2.034       .  S
Co896       O900   2.001       .  S
Co897       O900   2.018       .  S
Co898       O900   2.038       .  S
Co899       O900   2.020       .  S
C901       C1002   1.490       .  S
C902        C965   1.493       .  S
C903       C1114   1.484       .  S
C904        C918   1.472       .  S
C905        C906   1.394       .  A
C905        C910   1.393       .  A
C905        H915   1.088       .  S
C906        C911   1.475       .  S
C906        C907   1.410       .  A
C907        C908   1.399       .  A
C907        N912   1.428       .  S
C908        C909   1.405       .  A
C908        H913   1.087       .  S
C909        C910   1.417       .  A
C910        N914   1.423       .  S
C911        C916   1.410       .  A
C911        C920   1.400       .  A
N912        O927   1.262       .  A
N912        O928   1.262       .  A
N914        O925   1.262       .  A
C916        C917   1.395       .  A
C916        N921   1.429       .  S
C917        C918   1.401       .  A
C917        H922   1.089       .  S
C918        C919   1.413       .  A
C919        C920   1.397       .  A
C919        N923   1.429       .  S
C920        H924   1.088       .  S
N921        O931   1.262       .  A
N921        O932   1.262       .  A
N923        O929   1.261       .  A
N923        O930   1.259       .  A
C933        C934   1.405       .  A
C933        C938   1.406       .  A
C933        H943   1.086       .  S
C934        C939   1.494       .  S
C934        C935   1.413       .  A
C935        C936   1.398       .  A
C935        N940   1.430       .  S
C936        C937   1.403       .  A
C936        H941   1.087       .  S
C937        C938   1.415       .  A
C938        N942   1.429       .  S
C939        C944   1.413       .  A
C939        C948   1.400       .  A
N940        O955   1.262       .  A
N940        O956   1.262       .  A
N942        O953   1.262       .  A
N942        O954   1.262       .  A
C944        C945   1.406       .  A
C944        N949   1.428       .  S
C945        C946   1.408       .  A
C945        H950   1.086       .  S
C946        C947   1.413       .  A
C947        C948   1.397       .  A
C947        N951   1.423       .  S
C948        H952   1.086       .  S
N949        O959   1.262       .  A
N949        O960   1.262       .  A
N951        O957   1.262       .  A
N951        O958   1.262       .  A
C961        C962   1.394       .  A
C961        C966   1.396       .  A
C961        H971   1.082       .  S
C962        C967   1.478       .  S
C962        C963   1.407       .  A
C963        C964   1.406       .  A
C963        N968   1.429       .  S
C964        C965   1.409       .  A
C964        H969   1.081       .  S
C965        C966   1.418       .  A
C966        N970   1.424       .  S
C967        C972   1.406       .  A
C967        C976   1.400       .  A
N968        O983   1.262       .  A
N968        O984   1.262       .  A
N970        O981   1.262       .  A
N970        O982   1.261       .  A
C972        C973   1.400       .  A
C972        N977   1.428       .  S
C973        C974   1.407       .  A
C973        H978   1.085       .  S
C974        C975   1.417       .  A
C975        C976   1.397       .  A
C975        N979   1.430       .  S
C976        H980   1.085       .  S
N977        O987   1.262       .  A
N977        O988   1.262       .  A
N979        O985   1.262       .  A
N979        O986   1.262       .  A
C989        C990   1.402       .  A
C989        C994   1.398       .  A
C989        H999   1.085       .  S
C990        C995   1.488       .  S
C990        C991   1.412       .  A
C991        C992   1.401       .  A
C991        N996   1.429       .  S
C992        C993   1.404       .  A
C992        H997   1.086       .  S
C993        C994   1.415       .  A
C994        N998   1.430       .  S
C995       C1000   1.409       .  A
C995       C1004   1.405       .  A
N996       O1011   1.262       .  A
N996       O1012   1.262       .  A
C1000      C1001   1.396       .  A
C1000      N1005   1.430       .  S
C1001      C1002   1.407       .  A
C1001      H1006   1.086       .  S
C1002      C1003   1.416       .  A
C1003      C1004   1.405       .  A
C1003      N1007   1.429       .  S
C1004      H1008   1.086       .  S
N1005      O1015   1.262       .  A
N1005      O1016   1.262       .  A
N1007      O1013   1.260       .  A
N1007      O1014   1.261       .  A
C1017      C1018   1.402       .  A
C1017      C1022   1.402       .  A
C1017      H1027   1.088       .  S
C1018      C1023   1.481       .  S
C1018      C1019   1.406       .  A
C1019      C1020   1.401       .  A
C1019      N1024   1.428       .  S
C1020      C1021   1.408       .  A
C1020      H1025   1.088       .  S
C1021      C1022   1.414       .  A
C1022      N1026   1.428       .  S
C1023      C1028   1.409       .  A
C1023      C1032   1.396       .  A
N1024      O1039   1.262       .  A
N1024      O1040   1.262       .  A
N1026      O1037   1.261       .  A
N1026      O1038   1.262       .  A
C1028      C1029   1.405       .  A
C1028      N1033   1.428       .  S
C1029      C1030   1.408       .  A
C1029      H1034   1.086       .  S
C1030      C1031   1.419       .  A
C1031      C1032   1.398       .  A
C1031      N1035   1.430       .  S
C1032      H1036   1.087       .  S
N1033      O1043   1.262       .  A
N1033      O1044   1.262       .  A
N1035      O1041   1.262       .  A
N1035      O1042   1.261       .  A
C1045      C1046   1.398       .  A
C1045      C1050   1.394       .  A
C1045      H1055   1.087       .  S
C1046      C1051   1.485       .  S
C1046      C1047   1.416       .  A
C1047      C1048   1.402       .  A
C1047      N1052   1.429       .  S
C1048      C1049   1.400       .  A
C1048      H1053   1.087       .  S
C1049      C1050   1.414       .  A
C1050      N1054   1.428       .  S
C1051      C1056   1.413       .  A
C1051      C1060   1.399       .  A
N1052      O1067   1.262       .  A
N1052      O1068   1.262       .  A
N1054      O1065   1.262       .  A
N1054      O1066   1.262       .  A
C1056      C1057   1.399       .  A
C1056      N1061   1.429       .  S
C1057      C1058   1.404       .  A
C1057      H1062   1.087       .  S
C1058      C1059   1.416       .  A
C1059      C1060   1.399       .  A
C1059      N1063   1.429       .  S
C1060      H1064   1.087       .  S
N1061      O1071   1.262       .  A
N1061      O1072   1.262       .  A
N1063      O1069   1.262       .  A
N1063      O1070   1.262       .  A
C1073      C1074   1.397       .  A
C1073      C1078   1.400       .  A
C1073      H1083   1.084       .  S
C1074      C1079   1.481       .  S
C1074      C1075   1.405       .  A
C1075      C1076   1.406       .  A
C1075      N1080   1.429       .  S
C1076      C1077   1.412       .  A
C1076      H1081   1.082       .  S
C1077      C1078   1.420       .  A
C1078      N1082   1.427       .  S
C1079      C1084   1.403       .  A
C1079      C1088   1.403       .  A
N1080      O1095   1.262       .  A
N1080      O1096   1.262       .  A
N1082      O1093   1.262       .  A
N1082      O1094   1.262       .  A
C1084      C1085   1.394       .  A
C1084      N1089   1.428       .  S
C1085      C1086   1.408       .  A
C1085      H1090   1.087       .  S
C1086      C1087   1.416       .  A
C1087      C1088   1.406       .  A
C1087      N1091   1.429       .  S
C1088      H1092   1.087       .  S
N1089      O1099   1.262       .  A
N1089      O1100   1.262       .  A
N1091      O1097   1.262       .  A
N1091      O1098   1.262       .  A
C1101      C1102   1.398       .  A
C1101      C1106   1.400       .  A
C1101      H1111   1.087       .  S
C1102      C1107   1.473       .  S
C1102      C1103   1.407       .  A
C1103      C1104   1.396       .  A
C1103      N1108   1.429       .  S
C1104      C1105   1.405       .  A
C1104      H1109   1.086       .  S
C1105      C1106   1.418       .  A
C1106      N1110   1.429       .  S
C1107      C1112   1.404       .  A
C1107      C1116   1.401       .  A
N1108      O1123   1.262       .  A
N1108      O1124   1.262       .  A
N1110      O1121   1.262       .  A
N1110      O1122   1.262       .  A
C1112      C1113   1.394       .  A
C1112      N1117   1.429       .  S
C1113      C1114   1.407       .  A
C1113      H1118   1.086       .  S
C1114      C1115   1.416       .  A
C1115      C1116   1.401       .  A
C1115      N1119   1.429       .  S
C1116      H1120   1.087       .  S
N1117      O1127   1.262       .  A
N1117      O1128   1.262       .  A
N1119      O1125   1.262       .  A
N1119      O1126   1.262       .  A
O1129      C1137   1.269       .  A
O1129     Co1149   2.012       .  S
O1130      C1138   1.238       .  A
O1130     Co1432   1.953   1_554  S
O1131      C1139   1.266       .  A
O1132      C1140   1.253       .  A
O1132     Co1434   1.993   1_654  S
O1133      C1139   1.274       .  A
O1133     Co1996   2.009   1_554  S
O1134      C1140   1.250       .  A
O1134     Co1713   1.971   1_554  S
O1135      C1138   1.255       .  A
O1136      C1137   1.267       .  A
O1136     Co1151   1.978       .  S
C1137      C1387   1.489       .  S
C1138      C1191   1.484       .  S
C1139      C1256   1.483       .  S
C1140      C1275   1.486       .  S
O1141      C1154   1.269       .  A
O1141     Co1995   1.880       .  S
O1142      C1155   1.261       .  A
O1142     Co1714   1.988       .  S
O1143      C1156   1.265       .  A
O1143     Co1433   2.004   1_655  S
O1144      C1157   1.297       .  A
O1145      C1157   1.273       .  A
O1145     Co1150   1.901       .  S
O1146      C1156   1.264       .  A
O1146     Co1431   1.985       .  S
O1147      C1154   1.300       .  A
O1147     Co1152   2.085   1_655  S
O1148      C1155   1.269       .  A
Co1149     O1698   1.968       .  S
Co1149     O1987   1.876   1_554  S
Co1149     O1428   1.988   1_554  S
Co1149     O1153   1.919       .  S
Co1150     O1412   1.957       .  S
Co1150     O1979   2.004   1_545  S
Co1150     O1706   1.994   1_545  S
Co1151     O1425   1.998   1_554  S
Co1151     O1153   2.079       .  S
Co1152     O1414   1.996   1_455  S
Co1152     O1999   2.244   1_545  S
O1153     Co1998   2.256   1_654  S
C1154      C1340   1.474       .  S
C1155      C1368   1.490       .  S
C1156      C1312   1.483       .  S
C1157      C1228   1.491       .  S
O1158      C1166   1.262       .  A
O1158     Co1178   1.991       .  S
O1159      C1167   1.282       .  A
O1159     Co1179   2.032       .  S
O1160      C1168   1.267       .  A
O1160     Co1180   1.972       .  S
O1161      C1169   1.263       .  A
O1161     Co1181   1.890       .  S
O1162      C1168   1.277       .  A
O1162     Co1179   2.030       .  S
O1163      C1169   1.298       .  A
O1163     Co1178   2.113       .  S
O1164      C1167   1.266       .  A
O1164     Co1181   1.967       .  S
O1165      C1166   1.260       .  A
O1165     Co1180   1.983       .  S
C1166      C1303   1.489       .  S
C1167      C1219   1.480       .  S
C1168      C1359   1.499       .  S
C1169      C1331   1.473       .  S
O1170      C1183   1.262       .  A
O1170     Co1178   1.890       .  S
O1171      C1184   1.259       .  A
O1171     Co1179   1.963       .  S
O1172      C1185   1.280       .  A
O1172     Co1180   2.022       .  S
O1173      C1186   1.261       .  A
O1173     Co1181   1.999       .  S
O1174      C1186   1.253       .  A
O1174     Co1179   1.974       .  S
O1175      C1185   1.267       .  A
O1175     Co1178   1.965       .  S
O1176      C1183   1.294       .  A
O1176     Co1181   2.111       .  S
O1177      C1184   1.271       .  A
O1177     Co1180   2.026       .  S
Co1178     O1182   1.999       .  S
Co1179     O1182   2.012       .  S
Co1180     O1182   2.040       .  S
Co1181     O1182   2.021       .  S
C1183      C1284   1.490       .  S
C1184      C1247   1.493       .  S
C1185      C1396   1.480       .  S
C1186      C1200   1.472       .  S
C1187      C1188   1.392       .  A
C1187      C1192   1.392       .  A
C1187      H1197   1.089       .  S
C1188      C1193   1.474       .  S
C1188      C1189   1.410       .  A
C1189      C1190   1.400       .  A
C1189      N1194   1.428       .  S
C1190      C1191   1.404       .  A
C1190      H1195   1.087       .  S
C1191      C1192   1.419       .  A
C1192      N1196   1.426       .  S
C1193      C1198   1.410       .  A
C1193      C1202   1.398       .  A
N1194      O1209   1.262       .  A
N1194      O1210   1.262       .  A
N1196      O1207   1.262       .  A
N1196      O1490   1.262       .  A
C1198      C1199   1.395       .  A
C1198      N1203   1.429       .  S
C1199      C1200   1.401       .  A
C1199      H1204   1.088       .  S
C1200      C1201   1.414       .  A
C1201      C1202   1.396       .  A
C1201      N1205   1.429       .  S
C1202      H1206   1.088       .  S
N1203      O1213   1.262       .  A
N1203      O1214   1.262       .  A
N1205      O1211   1.261       .  A
N1205      O1212   1.258       .  A
O1208      N1478   1.262       .  A
C1215      C1216   1.404       .  A
C1215      C1220   1.403       .  A
C1215      H1225   1.086       .  S
C1216      C1221   1.485       .  S
C1216      C1217   1.411       .  A
C1217      C1218   1.396       .  A
C1217      N1222   1.429       .  S
C1218      C1219   1.402       .  A
C1218      H1223   1.087       .  S
C1219      C1220   1.413       .  A
C1220      N1224   1.429       .  S
C1221      C1226   1.411       .  A
C1221      C1230   1.397       .  A
N1222      O1237   1.262       .  A
N1222      O1238   1.262       .  A
N1224      O1235   1.262       .  A
N1224      O1236   1.262       .  A
C1226      C1227   1.404       .  A
C1226      N1231   1.428       .  S
C1227      C1228   1.407       .  A
C1227      H1232   1.086       .  S
C1228      C1229   1.415       .  A
C1229      C1230   1.394       .  A
C1229      N1233   1.424       .  S
C1230      H1234   1.087       .  S
N1231      O1241   1.262       .  A
N1231      O1242   1.262       .  A
N1233      O1239   1.262       .  A
N1233      O1240   1.261       .  A
C1243      C1244   1.393       .  A
C1243      C1248   1.394       .  A
C1243      H1253   1.082       .  S
C1244      C1249   1.474       .  S
C1244      C1245   1.405       .  A
C1245      C1246   1.406       .  A
C1245      N1250   1.429       .  S
C1246      C1247   1.411       .  A
C1246      H1251   1.080       .  S
C1247      C1248   1.418       .  A
C1248      N1252   1.423       .  S
C1249      C1254   1.404       .  A
C1249      C1258   1.400       .  A
N1250      O1265   1.261       .  A
N1250      O1266   1.262       .  A
N1252      O1263   1.262       .  A
N1252      O1264   1.262       .  A
C1254      C1255   1.396       .  A
C1254      N1259   1.428       .  S
C1255      C1256   1.407       .  A
C1255      H1260   1.085       .  S
C1256      C1257   1.418       .  A
C1257      C1258   1.399       .  A
C1257      N1261   1.430       .  S
C1258      H1262   1.085       .  S
N1259      O1269   1.262       .  A
N1259      O1270   1.262       .  A
N1261      O1267   1.262       .  A
N1261      O1268   1.262       .  A
C1271      C1272   1.401       .  A
C1271      C1276   1.399       .  A
C1271      H1281   1.085       .  S
C1272      C1277   1.487       .  S
C1272      C1273   1.411       .  A
C1273      C1274   1.402       .  A
C1273      N1278   1.429       .  S
C1274      C1275   1.405       .  A
C1274      H1279   1.086       .  S
C1275      C1276   1.417       .  A
C1276      N1280   1.429       .  S
C1277      C1282   1.409       .  A
C1277      C1286   1.404       .  A
N1278      O1293   1.262       .  A
N1278      O1294   1.262       .  A
N1280      O1573   1.262       .  A
N1280      O1574   1.262       .  A
C1282      C1283   1.396       .  A
C1282      N1287   1.429       .  S
C1283      C1284   1.406       .  A
C1283      H1288   1.085       .  S
C1284      C1285   1.416       .  A
C1285      C1286   1.404       .  A
C1285      N1289   1.428       .  S
C1286      H1290   1.086       .  S
N1287      O1297   1.262       .  A
N1287      O1298   1.262       .  A
N1289      O1295   1.259       .  A
N1289      O1296   1.261       .  A
O1291      N1562   1.262       .  A
O1292      N1562   1.262       .  A
C1299      C1300   1.399       .  A
C1299      C1304   1.400       .  A
C1299      H1309   1.089       .  S
C1300      C1305   1.481       .  S
C1300      C1301   1.409       .  A
C1301      C1302   1.398       .  A
C1301      N1306   1.428       .  S
C1302      C1303   1.407       .  A
C1302      H1307   1.088       .  S
C1303      C1304   1.416       .  A
C1304      N1308   1.426       .  S
C1305      C1310   1.411       .  A
C1305      C1314   1.397       .  A
N1306      O1321   1.262       .  A
N1306      O1322   1.262       .  A
N1308      O1319   1.261       .  A
N1308      O1320   1.262       .  A
C1310      C1311   1.401       .  A
C1310      N1315   1.429       .  S
C1311      C1312   1.404       .  A
C1311      H1316   1.086       .  S
C1312      C1313   1.418       .  A
C1313      C1314   1.398       .  A
C1313      N1317   1.429       .  S
C1314      H1318   1.086       .  S
N1315      O1325   1.262       .  A
N1315      O1326   1.262       .  A
N1317      O1323   1.262       .  A
N1317      O1324   1.261       .  A
C1327      C1328   1.397       .  A
C1327      C1332   1.393       .  A
C1327      H1337   1.087       .  S
C1328      C1333   1.486       .  S
C1328      C1329   1.418       .  A
C1329      C1330   1.404       .  A
C1329      N1334   1.429       .  S
C1330      C1331   1.399       .  A
C1330      H1335   1.087       .  S
C1331      C1332   1.412       .  A
C1332      N1336   1.427       .  S
C1333      C1338   1.417       .  A
C1333      C1342   1.398       .  A
N1334      O1349   1.262       .  A
N1334      O1350   1.262       .  A
N1336      O1347   1.261       .  A
N1336      O1348   1.262       .  A
C1338      C1339   1.401       .  A
C1338      N1343   1.429       .  S
C1339      C1340   1.400       .  A
C1339      H1344   1.087       .  S
C1340      C1341   1.411       .  A
C1341      C1342   1.396       .  A
C1341      N1345   1.427       .  S
C1342      H1346   1.087       .  S
N1343      O1353   1.262       .  A
N1343      O1354   1.261       .  A
N1345      O1351   1.261       .  A
N1345      O1352   1.261       .  A
C1355      C1356   1.396       .  A
C1355      C1360   1.399       .  A
C1355      H1365   1.084       .  S
C1356      C1361   1.478       .  S
C1356      C1357   1.404       .  A
C1357      C1358   1.406       .  A
C1357      N1362   1.429       .  S
C1358      C1359   1.413       .  A
C1358      H1363   1.082       .  S
C1359      C1360   1.419       .  A
C1360      N1364   1.425       .  S
C1361      C1366   1.403       .  A
C1361      C1370   1.402       .  A
N1362      O1377   1.262       .  A
N1362      O1378   1.262       .  A
N1364      O1375   1.261       .  A
N1364      O1376   1.262       .  A
C1366      C1367   1.396       .  A
C1366      N1371   1.428       .  S
C1367      C1368   1.408       .  A
C1367      H1372   1.086       .  S
C1368      C1369   1.416       .  A
C1369      C1370   1.404       .  A
C1369      N1373   1.428       .  S
C1370      H1374   1.087       .  S
N1371      O1381   1.262       .  A
N1371      O1382   1.262       .  A
N1373      O1379   1.262       .  A
N1373      O1380   1.262       .  A
C1383      C1384   1.400       .  A
C1383      C1388   1.403       .  A
C1383      H1393   1.087       .  S
C1384      C1389   1.481       .  S
C1384      C1385   1.409       .  A
C1385      C1386   1.396       .  A
C1385      N1390   1.430       .  S
C1386      C1387   1.406       .  A
C1386      H1391   1.087       .  S
C1387      C1388   1.419       .  A
C1388      N1392   1.428       .  S
C1389      C1394   1.408       .  A
C1389      C1398   1.400       .  A
N1390      O1405   1.262       .  A
N1390      O1406   1.262       .  A
N1392      O1403   1.262       .  A
N1392      O1404   1.262       .  A
C1394      C1395   1.400       .  A
C1394      N1399   1.427       .  S
C1395      C1396   1.404       .  A
C1395      H1400   1.087       .  S
C1396      C1397   1.415       .  A
C1397      C1398   1.397       .  A
C1397      N1401   1.428       .  S
C1398      H1402   1.087       .  S
N1399      O1409   1.262       .  A
N1399      O1410   1.262       .  A
N1401      O1407   1.262       .  A
N1401      O1408   1.261       .  A
O1411      C1419   1.269       .  A
O1411     Co1431   2.011       .  S
O1412      C1420   1.240       .  A
O1413      C1421   1.266       .  A
O1414      C1422   1.252       .  A
O1415      C1421   1.274       .  A
O1415     Co1714   2.011       .  S
O1416      C1422   1.249       .  A
O1416     Co1995   1.969       .  S
O1417      C1420   1.256       .  A
O1418      C1419   1.265       .  A
O1418     Co1433   1.971   1_655  S
C1419      C1669   1.484       .  S
C1420      C1473   1.488       .  S
C1421      C1538   1.487       .  S
C1422      C1557   1.491       .  S
O1423      C1436   1.267       .  A
O1423     Co1713   1.881       .  S
O1424      C1437   1.264       .  A
O1424     Co1996   1.993       .  S
O1425      C1438   1.264       .  A
O1426      C1439   1.300       .  A
O1427      C1439   1.274       .  A
O1427     Co1432   1.903       .  S
O1428      C1438   1.265       .  A
O1429      C1436   1.298       .  A
O1429     Co1434   2.088   1_655  S
O1430      C1437   1.267       .  A
Co1431     O1980   1.970       .  S
Co1431     O1705   1.871       .  S
Co1431     O1435   1.927   1_655  S
Co1432     O1697   2.010   1_546  S
Co1432     O1988   1.987   1_545  S
Co1433     O1435   2.076       .  S
Co1434     O1717   2.252   1_446  S
O1435     Co1716   2.248       .  S
C1436      C1622   1.471       .  S
C1437      C1650   1.491       .  S
C1438      C1594   1.483       .  S
C1439      C1510   1.493       .  S
O1440      C1448   1.261       .  A
O1440     Co1460   1.994       .  S
O1441      C1449   1.280       .  A
O1441     Co1461   2.030       .  S
O1442      C1450   1.264       .  A
O1442     Co1462   1.971       .  S
O1443      C1451   1.263       .  A
O1443     Co1463   1.885       .  S
O1444      C1450   1.277       .  A
O1444     Co1461   2.033       .  S
O1445      C1451   1.299       .  A
O1445     Co1460   2.114       .  S
O1446      C1449   1.265       .  A
O1446     Co1463   1.971       .  S
O1447      C1448   1.260       .  A
O1447     Co1462   1.985       .  S
C1448      C1585   1.490       .  S
C1449      C1501   1.479       .  S
C1450      C1641   1.499       .  S
C1451      C1613   1.479       .  S
O1452      C1465   1.261       .  A
O1452     Co1460   1.892       .  S
O1453      C1466   1.259       .  A
O1453     Co1461   1.958       .  S
O1454      C1467   1.280       .  A
O1454     Co1462   2.019       .  S
O1455      C1468   1.263       .  A
O1455     Co1463   2.001       .  S
O1456      C1468   1.255       .  A
O1456     Co1461   1.981       .  S
O1457      C1467   1.269       .  A
O1457     Co1460   1.967       .  S
O1458      C1465   1.297       .  A
O1458     Co1463   2.122       .  S
O1459      C1466   1.274       .  A
O1459     Co1462   2.037       .  S
Co1460     O1464   2.002       .  S
Co1461     O1464   2.021       .  S
Co1462     O1464   2.039       .  S
Co1463     O1464   2.012       .  S
C1465      C1566   1.487       .  S
C1466      C1529   1.496       .  S
C1467      C1678   1.485       .  S
C1468      C1482   1.480       .  S
C1469      C1470   1.394       .  A
C1469      C1474   1.394       .  A
C1469      H1479   1.088       .  S
C1470      C1475   1.480       .  S
C1470      C1471   1.412       .  A
C1471      C1472   1.400       .  A
C1471      N1476   1.428       .  S
C1472      C1473   1.404       .  A
C1472      H1477   1.087       .  S
C1473      C1474   1.419       .  A
C1474      N1478   1.424       .  S
C1475      C1480   1.411       .  A
C1475      C1484   1.398       .  A
N1476      O1491   1.262       .  A
N1476      O1492   1.262       .  A
N1478      O1489   1.262       .  A
C1480      C1481   1.398       .  A
C1480      N1485   1.429       .  S
C1481      C1482   1.403       .  A
C1481      H1486   1.087       .  S
C1482      C1483   1.414       .  A
C1483      C1484   1.396       .  A
C1483      N1487   1.426       .  S
C1484      H1488   1.087       .  S
N1485      O1495   1.262       .  A
N1485      O1496   1.261       .  A
N1487      O1493   1.260       .  A
N1487      O1494   1.258       .  A
C1497      C1498   1.404       .  A
C1497      C1502   1.404       .  A
C1497      H1507   1.086       .  S
C1498      C1503   1.486       .  S
C1498      C1499   1.411       .  A
C1499      C1500   1.396       .  A
C1499      N1504   1.429       .  S
C1500      C1501   1.401       .  A
C1500      H1505   1.086       .  S
C1501      C1502   1.412       .  A
C1502      N1506   1.427       .  S
C1503      C1508   1.411       .  A
C1503      C1512   1.396       .  A
N1504      O1519   1.262       .  A
N1504      O1520   1.262       .  A
N1506      O1517   1.262       .  A
N1506      O1518   1.261       .  A
C1508      C1509   1.406       .  A
C1508      N1513   1.428       .  S
C1509      C1510   1.408       .  A
C1509      H1514   1.086       .  S
C1510      C1511   1.413       .  A
C1511      C1512   1.394       .  A
C1511      N1515   1.420       .  S
C1512      H1516   1.087       .  S
N1513      O1523   1.262       .  A
N1513      O1524   1.261       .  A
N1515      O1521   1.262       .  A
N1515      O1522   1.261       .  A
C1525      C1526   1.392       .  A
C1525      C1530   1.392       .  A
C1525      H1535   1.082       .  S
C1526      C1531   1.477       .  S
C1526      C1527   1.407       .  A
C1527      C1528   1.410       .  A
C1527      N1532   1.429       .  S
C1528      C1529   1.412       .  A
C1528      H1533   1.080       .  S
C1529      C1530   1.419       .  A
C1530      N1534   1.423       .  S
C1531      C1536   1.405       .  A
C1531      C1540   1.401       .  A
N1532      O1547   1.261       .  A
N1532      O1548   1.262       .  A
N1534      O1545   1.262       .  A
N1534      O1546   1.262       .  A
C1536      C1537   1.397       .  A
C1536      N1541   1.428       .  S
C1537      C1538   1.407       .  A
C1537      H1542   1.084       .  S
C1538      C1539   1.418       .  A
C1539      C1540   1.401       .  A
C1539      N1543   1.429       .  S
C1540      H1544   1.084       .  S
N1541      O1551   1.262       .  A
N1541      O1552   1.262       .  A
N1543      O1549   1.262       .  A
N1543      O1550   1.262       .  A
C1553      C1554   1.403       .  A
C1553      C1558   1.404       .  A
C1553      H1563   1.086       .  S
C1554      C1559   1.488       .  S
C1554      C1555   1.409       .  A
C1555      C1556   1.400       .  A
C1555      N1560   1.429       .  S
C1556      C1557   1.407       .  A
C1556      H1561   1.085       .  S
C1557      C1558   1.417       .  A
C1558      N1562   1.429       .  S
C1559      C1564   1.409       .  A
C1559      C1568   1.403       .  A
N1560      O1575   1.262       .  A
N1560      O1576   1.262       .  A
C1564      C1565   1.400       .  A
C1564      N1569   1.428       .  S
C1565      C1566   1.406       .  A
C1565      H1570   1.086       .  S
C1566      C1567   1.410       .  A
C1567      C1568   1.405       .  A
C1567      N1571   1.423       .  S
C1568      H1572   1.086       .  S
N1569      O1579   1.262       .  A
N1569      O1580   1.262       .  A
N1571      O1577   1.261       .  A
N1571      O1578   1.262       .  A
C1581      C1582   1.396       .  A
C1581      C1586   1.397       .  A
C1581      H1591   1.089       .  S
C1582      C1587   1.477       .  S
C1582      C1583   1.406       .  A
C1583      C1584   1.401       .  A
C1583      N1588   1.428       .  S
C1584      C1585   1.409       .  A
C1584      H1589   1.088       .  S
C1585      C1586   1.415       .  A
C1586      N1590   1.424       .  S
C1587      C1592   1.409       .  A
C1587      C1596   1.396       .  A
N1588      O1603   1.262       .  A
N1588      O1604   1.262       .  A
N1590      O1601   1.261       .  A
N1590      O1602   1.262       .  A
C1592      C1593   1.400       .  A
C1592      N1597   1.428       .  S
C1593      C1594   1.403       .  A
C1593      H1598   1.087       .  S
C1594      C1595   1.420       .  A
C1595      C1596   1.399       .  A
C1595      N1599   1.430       .  S
C1596      H1600   1.087       .  S
N1597      O1607   1.262       .  A
N1597      O1608   1.261       .  A
N1599      O1605   1.262       .  A
N1599      O1606   1.261       .  A
C1609      C1610   1.400       .  A
C1609      C1614   1.398       .  A
C1609      H1619   1.086       .  S
C1610      C1615   1.477       .  S
C1610      C1611   1.407       .  A
C1611      C1612   1.400       .  A
C1611      N1616   1.428       .  S
C1612      C1613   1.404       .  A
C1612      H1617   1.086       .  S
C1613      C1614   1.416       .  A
C1614      N1618   1.430       .  S
C1615      C1620   1.407       .  A
C1615      C1624   1.403       .  A
N1616      O1631   1.262       .  A
N1616      O1632   1.262       .  A
N1618      O1629   1.262       .  A
N1618      O1630   1.262       .  A
C1620      C1621   1.395       .  A
C1620      N1625   1.429       .  S
C1621      C1622   1.402       .  A
C1621      H1626   1.088       .  S
C1622      C1623   1.410       .  A
C1623      C1624   1.403       .  A
C1623      N1627   1.429       .  S
C1624      H1628   1.087       .  S
N1625      O1635   1.262       .  A
N1625      O1636   1.262       .  A
N1627      O1633   1.261       .  A
N1627      O1634   1.261       .  A
C1637      C1638   1.395       .  A
C1637      C1642   1.399       .  A
C1637      H1647   1.083       .  S
C1638      C1643   1.479       .  S
C1638      C1639   1.403       .  A
C1639      C1640   1.406       .  A
C1639      N1644   1.428       .  S
C1640      C1641   1.413       .  A
C1640      H1645   1.082       .  S
C1641      C1642   1.421       .  A
C1642      N1646   1.426       .  S
C1643      C1648   1.402       .  A
C1643      C1652   1.403       .  A
N1644      O1659   1.262       .  A
N1644      O1660   1.262       .  A
N1646      O1657   1.260       .  A
N1646      O1658   1.261       .  A
C1648      C1649   1.395       .  A
C1648      N1653   1.429       .  S
C1649      C1650   1.410       .  A
C1649      H1654   1.086       .  S
C1650      C1651   1.415       .  A
C1651      C1652   1.405       .  A
C1651      N1655   1.427       .  S
C1652      H1656   1.087       .  S
N1653      O1663   1.262       .  A
N1653      O1664   1.262       .  A
N1655      O1661   1.261       .  A
N1655      O1662   1.262       .  A
C1665      C1666   1.400       .  A
C1665      C1670   1.403       .  A
C1665      H1675   1.087       .  S
C1666      C1671   1.473       .  S
C1666      C1667   1.404       .  A
C1667      C1668   1.393       .  A
C1667      N1672   1.429       .  S
C1668      C1669   1.406       .  A
C1668      H1673   1.086       .  S
C1669      C1670   1.418       .  A
C1670      N1674   1.429       .  S
C1671      C1676   1.404       .  A
C1671      C1680   1.399       .  A
N1672      O1687   1.262       .  A
N1672      O1688   1.262       .  A
N1674      O1685   1.262       .  A
N1674      O1686   1.262       .  A
C1676      C1677   1.398       .  A
C1676      N1681   1.428       .  S
C1677      C1678   1.408       .  A
C1677      H1682   1.086       .  S
C1678      C1679   1.417       .  A
C1679      C1680   1.398       .  A
C1679      N1683   1.429       .  S
C1680      H1684   1.087       .  S
N1681      O1691   1.262       .  A
N1681      O1692   1.262       .  A
N1683      O1689   1.262       .  A
N1683      O1690   1.262       .  A
O1693      C1701   1.268       .  A
O1693     Co1713   2.010   1_564  S
O1694      C1702   1.239       .  A
O1694     Co1996   1.958   1_554  S
O1695      C1703   1.266       .  A
O1696      C1704   1.252       .  A
O1696     Co1998   1.988   1_654  S
O1697      C1703   1.274       .  A
O1698      C1704   1.249       .  A
O1699      C1702   1.253       .  A
O1700      C1701   1.265       .  A
O1700     Co1715   1.978       .  S
C1701      C1951   1.484       .  S
C1702      C1755   1.484       .  S
C1703      C1820   1.484       .  S
C1704      C1839   1.480       .  S
O1705      C1718   1.266       .  A
O1706      C1719   1.264       .  A
O1707      C1720   1.264       .  A
O1707     Co1997   2.001   1_655  S
O1708      C1721   1.292       .  A
O1709      C1721   1.274       .  A
O1709     Co1714   1.910       .  S
O1710      C1720   1.265       .  A
O1710     Co1995   1.987   1_565  S
O1711      C1718   1.302       .  A
O1711     Co1716   2.093   1_655  S
O1712      C1719   1.267       .  A
Co1713     O1992   1.984   1_545  S
Co1713     O1717   1.921   1_546  S
Co1714     O1976   1.958       .  S
Co1715     O1989   2.004   1_554  S
Co1715     O1717   2.081       .  S
Co1716     O1978   1.990   1_455  S
C1718      C1904   1.475       .  S
C1719      C1932   1.491       .  S
C1720      C1876   1.484       .  S
C1721      C1792   1.481       .  S
O1722      C1730   1.260       .  A
O1722     Co1742   1.991       .  S
O1723      C1731   1.282       .  A
O1723     Co1743   2.032       .  S
O1724      C1732   1.263       .  A
O1724     Co1744   1.966       .  S
O1725      C1733   1.262       .  A
O1725     Co1745   1.888       .  S
O1726      C1732   1.277       .  A
O1726     Co1743   2.035       .  S
O1727      C1733   1.299       .  A
O1727     Co1742   2.114       .  S
O1728      C1731   1.265       .  A
O1728     Co1745   1.963       .  S
O1729      C1730   1.258       .  A
O1729     Co1744   1.981       .  S
C1730      C1867   1.486       .  S
C1731      C1783   1.489       .  S
C1732      C1923   1.498       .  S
C1733      C1895   1.474       .  S
O1734      C1747   1.260       .  A
O1734     Co1742   1.878       .  S
O1735      C1748   1.256       .  A
O1735     Co1743   1.955       .  S
O1736      C1749   1.280       .  A
O1736     Co1744   2.021       .  S
O1737      C1750   1.259       .  A
O1737     Co1745   1.998       .  S
O1738      C1750   1.251       .  A
O1738     Co1743   1.974       .  S
O1739      C1749   1.267       .  A
O1739     Co1742   1.970       .  S
O1740      C1747   1.295       .  A
O1740     Co1745   2.113       .  S
O1741      C1748   1.273       .  A
O1741     Co1744   2.038       .  S
Co1742     O1746   2.000       .  S
Co1743     O1746   2.014       .  S
Co1744     O1746   2.040       .  S
Co1745     O1746   2.025       .  S
C1747      C1848   1.486       .  S
C1748      C1811   1.496       .  S
C1749      C1960   1.483       .  S
C1750      C1764   1.470       .  S
C1751      C1752   1.393       .  A
C1751      C1756   1.391       .  A
C1751      H1761   1.088       .  S
C1752      C1757   1.480       .  S
C1752      C1753   1.413       .  A
C1753      C1754   1.400       .  A
C1753      N1758   1.429       .  S
C1754      C1755   1.404       .  A
C1754      H1759   1.087       .  S
C1755      C1756   1.416       .  A
C1756      N1760   1.423       .  S
C1757      C1762   1.414       .  A
C1757      C1766   1.399       .  A
N1758      O1773   1.262       .  A
N1758      O1774   1.261       .  A
N1760      O1771   1.261       .  A
N1760      O2054   1.261       .  A
C1762      C1763   1.395       .  A
C1762      N1767   1.429       .  S
C1763      C1764   1.400       .  A
C1763      H1768   1.087       .  S
C1764      C1765   1.413       .  A
C1765      C1766   1.396       .  A
C1765      N1769   1.428       .  S
C1766      H1770   1.086       .  S
N1767      O1777   1.262       .  A
N1767      O1778   1.262       .  A
N1769      O1775   1.261       .  A
N1769      O1776   1.258       .  A
O1772      N2042   1.262       .  A
C1779      C1780   1.401       .  A
C1779      C1784   1.400       .  A
C1779      H1789   1.086       .  S
C1780      C1785   1.488       .  S
C1780      C1781   1.413       .  A
C1781      C1782   1.398       .  A
C1781      N1786   1.429       .  S
C1782      C1783   1.404       .  A
C1782      H1787   1.086       .  S
C1783      C1784   1.418       .  A
C1784      N1788   1.429       .  S
C1785      C1790   1.415       .  A
C1785      C1794   1.400       .  A
N1786      O1801   1.262       .  A
N1786      O1802   1.261       .  A
N1788      O1799   1.262       .  A
N1788      O1800   1.262       .  A
C1790      C1791   1.402       .  A
C1790      N1795   1.429       .  S
C1791      C1792   1.402       .  A
C1791      H1796   1.085       .  S
C1792      C1793   1.414       .  A
C1793      C1794   1.397       .  A
C1793      N1797   1.429       .  S
C1794      H1798   1.085       .  S
N1795      O1805   1.262       .  A
N1795      O1806   1.262       .  A
N1797      O1803   1.261       .  A
N1797      O1804   1.261       .  A
C1807      C1808   1.391       .  A
C1807      C1812   1.392       .  A
C1807      H1817   1.082       .  S
C1808      C1813   1.476       .  S
C1808      C1809   1.406       .  A
C1809      C1810   1.409       .  A
C1809      N1814   1.429       .  S
C1810      C1811   1.411       .  A
C1810      H1815   1.080       .  S
C1811      C1812   1.421       .  A
C1812      N1816   1.425       .  S
C1813      C1818   1.406       .  A
C1813      C1822   1.400       .  A
N1814      O1829   1.261       .  A
N1814      O1830   1.262       .  A
N1816      O1827   1.261       .  A
N1816      O1828   1.263       .  A
C1818      C1819   1.397       .  A
C1818      N1823   1.428       .  S
C1819      C1820   1.406       .  A
C1819      H1824   1.084       .  S
C1820      C1821   1.418       .  A
C1821      C1822   1.400       .  A
C1821      N1825   1.429       .  S
C1822      H1826   1.085       .  S
N1823      O1833   1.262       .  A
N1823      O1834   1.262       .  A
N1825      O1831   1.262       .  A
N1825      O1832   1.262       .  A
C1835      C1836   1.398       .  A
C1835      C1840   1.395       .  A
C1835      H1845   1.086       .  S
C1836      C1841   1.479       .  S
C1836      C1837   1.409       .  A
C1837      C1838   1.400       .  A
C1837      N1842   1.428       .  S
C1838      C1839   1.405       .  A
C1838      H1843   1.086       .  S
C1839      C1840   1.415       .  A
C1840      N1844   1.428       .  S
C1841      C1846   1.406       .  A
C1841      C1850   1.404       .  A
N1842      O1857   1.262       .  A
N1842      O1858   1.262       .  A
N1844      O2137   1.262       .  A
N1844      O2138   1.262       .  A
C1846      C1847   1.391       .  A
C1846      N1851   1.430       .  S
C1847      C1848   1.407       .  A
C1847      H1852   1.085       .  S
C1848      C1849   1.415       .  A
C1849      C1850   1.404       .  A
C1849      N1853   1.428       .  S
C1850      H1854   1.086       .  S
N1851      O1861   1.262       .  A
N1851      O1862   1.262       .  A
N1853      O1859   1.259       .  A
N1853      O1860   1.260       .  A
O1855      N2126   1.261   1_455  A
O1856      N2126   1.262       .  A
C1863      C1864   1.398       .  A
C1863      C1868   1.397       .  A
C1863      H1873   1.089       .  S
C1864      C1869   1.481       .  S
C1864      C1865   1.409       .  A
C1865      C1866   1.400       .  A
C1865      N1870   1.428       .  S
C1866      C1867   1.406       .  A
C1866      H1871   1.089       .  S
C1867      C1868   1.414       .  A
C1868      N1872   1.424       .  S
C1869      C1874   1.411       .  A
C1869      C1878   1.398       .  A
N1870      O1885   1.262       .  A
N1870      O1886   1.262       .  A
N1872      O1883   1.261       .  A
N1872      O1884   1.261       .  A
C1874      C1875   1.400       .  A
C1874      N1879   1.429       .  S
C1875      C1876   1.404       .  A
C1875      H1880   1.085       .  S
C1876      C1877   1.419       .  A
C1877      C1878   1.399       .  A
C1877      N1881   1.429       .  S
C1878      H1882   1.086       .  S
N1879      O1889   1.262       .  A
N1879      O1890   1.262       .  A
N1881      O1887   1.262       .  A
N1881      O1888   1.261       .  A
C1891      C1892   1.396       .  A
C1891      C1896   1.392       .  A
C1891      H1901   1.087       .  S
C1892      C1897   1.483       .  S
C1892      C1893   1.416       .  A
C1893      C1894   1.404       .  A
C1893      N1898   1.428       .  S
C1894      C1895   1.400       .  A
C1894      H1899   1.087       .  S
C1895      C1896   1.412       .  A
C1896      N1900   1.426       .  S
C1897      C1902   1.415       .  A
C1897      C1906   1.399       .  A
N1898      O1913   1.262       .  A
N1898      O1914   1.262       .  A
N1900      O1911   1.262       .  A
N1900      O1912   1.262       .  A
C1902      C1903   1.399       .  A
C1902      N1907   1.429       .  S
C1903      C1904   1.402       .  A
C1903      H1908   1.088       .  S
C1904      C1905   1.411       .  A
C1905      C1906   1.397       .  A
C1905      N1909   1.427       .  S
C1906      H1910   1.087       .  S
N1907      O1917   1.262       .  A
N1907      O1918   1.262       .  A
N1909      O1915   1.261       .  A
N1909      O1916   1.261       .  A
C1919      C1920   1.393       .  A
C1919      C1924   1.397       .  A
C1919      H1929   1.084       .  S
C1920      C1925   1.477       .  S
C1920      C1921   1.405       .  A
C1921      C1922   1.408       .  A
C1921      N1926   1.428       .  S
C1922      C1923   1.412       .  A
C1922      H1927   1.082       .  S
C1923      C1924   1.419       .  A
C1924      N1928   1.424       .  S
C1925      C1930   1.402       .  A
C1925      C1934   1.403       .  A
N1926      O1941   1.262       .  A
N1926      O1942   1.262       .  A
N1928      O1939   1.261       .  A
N1928      O1940   1.261       .  A
C1930      C1931   1.395       .  A
C1930      N1935   1.429       .  S
C1931      C1932   1.410       .  A
C1931      H1936   1.087       .  S
C1932      C1933   1.415       .  A
C1933      C1934   1.405       .  A
C1933      N1937   1.428       .  S
C1934      H1938   1.087       .  S
N1935      O1945   1.262       .  A
N1935      O1946   1.262       .  A
N1937      O1943   1.262       .  A
N1937      O1944   1.262       .  A
C1947      C1948   1.399       .  A
C1947      C1952   1.402       .  A
C1947      H1957   1.087       .  S
C1948      C1953   1.475       .  S
C1948      C1949   1.406       .  A
C1949      C1950   1.397       .  A
C1949      N1954   1.429       .  S
C1950      C1951   1.405       .  A
C1950      H1955   1.086       .  S
C1951      C1952   1.417       .  A
C1952      N1956   1.429       .  S
C1953      C1958   1.405       .  A
C1953      C1962   1.398       .  A
N1954      O1969   1.262       .  A
N1954      O1970   1.262       .  A
N1956      O1967   1.262       .  A
N1956      O1968   1.262   1_554  A
C1958      C1959   1.399       .  A
C1958      N1963   1.427       .  S
C1959      C1960   1.405       .  A
C1959      H1964   1.087       .  S
C1960      C1961   1.417       .  A
C1961      C1962   1.400       .  A
C1961      N1965   1.428       .  S
C1962      H1966   1.087       .  S
N1963      O1973   1.262       .  A
N1963      O1974   1.262       .  A
N1965      O1971   1.262       .  A
N1965      O1972   1.261       .  A
O1975      C1983   1.271       .  A
O1975     Co1995   2.014   1_565  S
O1976      C1984   1.242       .  A
O1977      C1985   1.269       .  A
O1978      C1986   1.252       .  A
O1979      C1985   1.272       .  A
O1980      C1986   1.249       .  A
O1981      C1984   1.257       .  A
O1982      C1983   1.265       .  A
O1982     Co1997   1.968   1_655  S
C1983      C2233   1.482       .  S
C1984      C2037   1.490       .  S
C1985      C2102   1.486       .  S
C1986      C2121   1.488       .  S
O1987      C2000   1.268       .  A
O1988      C2001   1.261       .  A
O1989      C2002   1.265       .  A
O1990      C2003   1.298       .  A
O1991      C2003   1.275       .  A
O1991     Co1996   1.905       .  S
O1992      C2002   1.262       .  A
O1993      C2000   1.303       .  A
O1993     Co1998   2.100   1_655  S
O1994      C2001   1.268       .  A
Co1995     O1999   1.931   1_645  S
Co1997     O1999   2.073       .  S
C2000      C2186   1.488       .  S
C2001      C2214   1.488       .  S
C2002      C2158   1.477       .  S
C2003      C2074   1.491       .  S
O2004      C2012   1.261       .  A
O2004     Co2024   1.988       .  S
O2005      C2013   1.284       .  A
O2005     Co2025   2.039       .  S
O2006      C2014   1.265       .  A
O2006     Co2026   1.974       .  S
O2007      C2015   1.263       .  A
O2007     Co2027   1.896       .  S
O2008      C2014   1.276       .  A
O2008     Co2025   2.029       .  S
O2009      C2015   1.298       .  A
O2009     Co2024   2.109       .  S
O2010      C2013   1.265       .  A
O2010     Co2027   1.966       .  S
O2011      C2012   1.261       .  A
O2011     Co2026   1.986       .  S
C2012      C2149   1.489       .  S
C2013      C2065   1.488       .  S
C2014      C2205   1.499       .  S
C2015      C2177   1.477       .  S
O2016      C2029   1.261       .  A
O2016     Co2024   1.893       .  S
O2017      C2030   1.258       .  A
O2017     Co2025   1.957       .  S
O2018      C2031   1.278       .  A
O2018     Co2026   2.015       .  S
O2019      C2032   1.261       .  A
O2019     Co2027   2.007       .  S
O2020      C2032   1.250       .  A
O2020     Co2025   1.976       .  S
O2021      C2031   1.268       .  A
O2021     Co2024   1.969       .  S
O2022      C2029   1.296       .  A
O2022     Co2027   2.110       .  S
O2023      C2030   1.274       .  A
O2023     Co2026   2.035       .  S
Co2024     O2028   2.000       .  S
Co2025     O2028   2.014       .  S
Co2026     O2028   2.045       .  S
Co2027     O2028   2.028       .  S
C2029      C2130   1.486       .  S
C2030      C2093   1.494       .  S
C2031      C2242   1.482       .  S
C2032      C2046   1.478       .  S
C2033      C2034   1.393       .  A
C2033      C2038   1.393       .  A
C2033      H2043   1.088       .  S
C2034      C2039   1.480       .  S
C2034      C2035   1.411       .  A
C2035      C2036   1.403       .  A
C2035      N2040   1.428       .  S
C2036      C2037   1.406       .  A
C2036      H2041   1.087       .  S
C2037      C2038   1.418       .  A
C2038      N2042   1.423       .  S
C2039      C2044   1.411       .  A
C2039      C2048   1.398       .  A
N2040      O2055   1.262       .  A
N2040      O2056   1.261       .  A
N2042      O2053   1.261       .  A
C2044      C2045   1.397       .  A
C2044      N2049   1.429       .  S
C2045      C2046   1.402       .  A
C2045      H2050   1.088       .  S
C2046      C2047   1.416       .  A
C2047      C2048   1.398       .  A
C2047      N2051   1.428       .  S
C2048      H2052   1.088       .  S
N2049      O2059   1.262       .  A
N2049      O2060   1.262       .  A
N2051      O2057   1.261       .  A
N2051      O2058   1.259       .  A
C2061      C2062   1.403       .  A
C2061      C2066   1.403       .  A
C2061      H2071   1.087       .  S
C2062      C2067   1.490       .  S
C2062      C2063   1.412       .  A
C2063      C2064   1.398       .  A
C2063      N2068   1.429       .  S
C2064      C2065   1.403       .  A
C2064      H2069   1.087       .  S
C2065      C2066   1.418       .  A
C2066      N2070   1.429       .  S
C2067      C2072   1.413       .  A
C2067      C2076   1.399       .  A
N2068      O2083   1.262       .  A
N2068      O2084   1.262       .  A
N2070      O2081   1.262       .  A
N2070      O2082   1.261       .  A
C2072      C2073   1.405       .  A
C2072      N2077   1.429       .  S
C2073      C2074   1.407       .  A
C2073      H2078   1.086       .  S
C2074      C2075   1.414       .  A
C2075      C2076   1.397       .  A
C2075      N2079   1.425       .  S
C2076      H2080   1.086       .  S
N2077      O2087   1.262       .  A
N2077      O2088   1.262       .  A
N2079      O2085   1.262       .  A
N2079      O2086   1.262       .  A
C2089      C2090   1.393       .  A
C2089      C2094   1.394       .  A
C2089      H2099   1.082       .  S
C2090      C2095   1.477       .  S
C2090      C2091   1.406       .  A
C2091      C2092   1.407       .  A
C2091      N2096   1.429       .  S
C2092      C2093   1.411       .  A
C2092      H2097   1.080       .  S
C2093      C2094   1.420       .  A
C2094      N2098   1.424       .  S
C2095      C2100   1.404       .  A
C2095      C2104   1.402       .  A
N2096      O2111   1.261       .  A
N2096      O2112   1.262       .  A
N2098      O2109   1.262       .  A
N2098      O2110   1.262       .  A
C2100      C2101   1.396       .  A
C2100      N2105   1.429       .  S
C2101      C2102   1.408       .  A
C2101      H2106   1.084       .  S
C2102      C2103   1.415       .  A
C2103      C2104   1.401       .  A
C2103      N2107   1.429       .  S
C2104      H2108   1.085       .  S
N2105      O2115   1.262       .  A
N2105      O2116   1.262       .  A
N2107      O2113   1.262       .  A
N2107      O2114   1.262       .  A
C2117      C2118   1.403       .  A
C2117      C2122   1.401       .  A
C2117      H2127   1.086       .  S
C2118      C2123   1.488       .  S
C2118      C2119   1.411       .  A
C2119      C2120   1.400       .  A
C2119      N2124   1.429       .  S
C2120      C2121   1.406       .  A
C2120      H2125   1.086       .  S
C2121      C2122   1.416       .  A
C2122      N2126   1.429       .  S
C2123      C2128   1.410       .  A
C2123      C2132   1.404       .  A
N2124      O2139   1.262       .  A
N2124      O2140   1.262       .  A
C2128      C2129   1.398       .  A
C2128      N2133   1.429       .  S
C2129      C2130   1.405       .  A
C2129      H2134   1.086       .  S
C2130      C2131   1.409       .  A
C2131      C2132   1.403       .  A
C2131      N2135   1.424       .  S
C2132      H2136   1.086       .  S
N2133      O2143   1.262       .  A
N2133      O2144   1.262       .  A
N2135      O2141   1.261       .  A
N2135      O2142   1.262       .  A
C2145      C2146   1.399       .  A
C2145      C2150   1.399       .  A
C2145      H2155   1.089       .  S
C2146      C2151   1.477       .  S
C2146      C2147   1.405       .  A
C2147      C2148   1.398       .  A
C2147      N2152   1.428       .  S
C2148      C2149   1.409       .  A
C2148      H2153   1.088       .  S
C2149      C2150   1.415       .  A
C2150      N2154   1.426       .  S
C2151      C2156   1.408       .  A
C2151      C2160   1.399       .  A
N2152      O2167   1.262       .  A
N2152      O2168   1.262       .  A
N2154      O2165   1.261       .  A
N2154      O2166   1.262       .  A
C2156      C2157   1.397       .  A
C2156      N2161   1.428       .  S
C2157      C2158   1.402       .  A
C2157      H2162   1.086       .  S
C2158      C2159   1.415       .  A
C2159      C2160   1.399       .  A
C2159      N2163   1.429       .  S
C2160      H2164   1.087       .  S
N2161      O2171   1.262       .  A
N2161      O2172   1.262       .  A
N2163      O2169   1.262       .  A
N2163      O2170   1.261       .  A
C2173      C2174   1.399       .  A
C2173      C2178   1.397       .  A
C2173      H2183   1.087       .  S
C2174      C2179   1.480       .  S
C2174      C2175   1.411       .  A
C2175      C2176   1.402       .  A
C2175      N2180   1.428       .  S
C2176      C2177   1.402       .  A
C2176      H2181   1.086       .  S
C2177      C2178   1.414       .  A
C2178      N2182   1.429       .  S
C2179      C2184   1.408       .  A
C2179      C2188   1.397       .  A
N2180      O2195   1.262       .  A
N2180      O2196   1.262       .  A
N2182      O2193   1.262       .  A
N2182      O2194   1.262       .  A
C2184      C2185   1.401       .  A
C2184      N2189   1.428       .  S
C2185      C2186   1.408       .  A
C2185      H2190   1.087       .  S
C2186      C2187   1.416       .  A
C2187      C2188   1.400       .  A
C2187      N2191   1.426       .  S
C2188      H2192   1.088       .  S
N2189      O2199   1.262       .  A
N2189      O2200   1.262       .  A
N2191      O2197   1.261       .  A
N2191      O2198   1.261       .  A
C2201      C2202   1.397       .  A
C2201      C2206   1.401       .  A
C2201      H2211   1.083       .  S
C2202      C2207   1.480       .  S
C2202      C2203   1.404       .  A
C2203      C2204   1.406       .  A
C2203      N2208   1.429       .  S
C2204      C2205   1.413       .  A
C2204      H2209   1.082       .  S
C2205      C2206   1.419       .  A
C2206      N2210   1.426       .  S
C2207      C2212   1.403       .  A
C2207      C2216   1.402       .  A
N2208      O2223   1.262       .  A
N2208      O2224   1.262       .  A
N2210      O2221   1.261       .  A
N2210      O2222   1.261       .  A
C2212      C2213   1.396       .  A
C2212      N2217   1.428       .  S
C2213      C2214   1.407       .  A
C2213      H2218   1.086       .  S
C2214      C2215   1.416       .  A
C2215      C2216   1.404       .  A
C2215      N2219   1.428       .  S
C2216      H2220   1.087       .  S
N2217      O2227   1.262       .  A
N2217      O2228   1.262       .  A
N2219      O2225   1.262       .  A
N2219      O2226   1.262       .  A
C2229      C2230   1.400       .  A
C2229      C2234   1.401       .  A
C2229      H2239   1.087       .  S
C2230      C2235   1.474       .  S
C2230      C2231   1.407       .  A
C2231      C2232   1.394       .  A
C2231      N2236   1.430       .  S
C2232      C2233   1.406       .  A
C2232      H2237   1.087       .  S
C2233      C2234   1.416       .  A
C2234      N2238   1.429       .  S
C2235      C2240   1.405       .  A
C2235      C2244   1.400       .  A
N2236      O2251   1.262       .  A
N2236      O2252   1.262       .  A
N2238      O2249   1.262       .  A
N2238      O2250   1.262       .  A
C2240      C2241   1.396       .  A
C2240      N2245   1.428       .  S
C2241      C2242   1.407       .  A
C2241      H2246   1.087       .  S
C2242      C2243   1.416       .  A
C2243      C2244   1.397       .  A
C2243      N2247   1.429       .  S
C2244      H2248   1.087       .  S
N2245      O2255   1.262       .  A
N2245      O2256   1.262       .  A
N2247      O2253   1.262       .  A
N2247      O2254   1.262       .  A
