geometry optimzed in LAMMPS
_audit_creation_date              2020-11-30 
_audit_creation_method            'lammps2cif' 
_symmetry_space_group_name_H-M    'P1' 
_symmetry_Int_Tables_number       1 
_symmetry_cell_setting            triclinic 
loop_ 
_symmetry_equiv_pos_as_xyz 
  x,y,z 
_cell_length_a                    40.98192884 
_cell_length_b                    42.00849208096204 
_cell_length_c                    30.98058310758124 
_cell_angle_alpha                 89.99246698410535 
_cell_angle_beta                  90.03951028476185 
_cell_angle_gamma                 90.12790345677237 
loop_ 
_atom_site_label 
_atom_site_type_symbol 
_atom_site_fract_x 
_atom_site_fract_y 
_atom_site_fract_z 
_atom_site_charge 
N1          N  0.99900749  0.02756574  0.44108002    -0.35900
N2          N  0.44954843  0.49597186  0.99986918    -0.56500
N3          N  0.50023564  0.46431679  0.05293553    -0.35900
N4          N  0.05216740  0.49638308  0.00143547    -0.56500
C5          C  0.47263127  0.04899115  0.44188252     0.27700
C6          C  0.02591280  0.04505817  0.43105820     0.27700
C7          C  0.47311475  0.44782512  0.06489616     0.27700
C8          C  0.02702184  0.44830772  0.06415369     0.27700
C9          C  0.42848432  0.01804586  0.47857276     0.36300
C10         C  0.42960258  0.47874892  0.02601208     0.36300
C11         C  0.06933092  0.01311367  0.46768302     0.36300
C12         C  0.07133234  0.48041092  0.02978329     0.36300
C13         C  0.48323495  0.07750604  0.42413648    -0.21200
C14         C  0.01633226  0.07411503  0.41400370    -0.21200
C15         C  0.48241130  0.41953753  0.08456059    -0.21200
C16         C  0.01685454  0.41936159  0.08106275    -0.21200
C17         C  0.39622319  0.01172957  0.48906170    -0.22200
C18         C  0.39737522  0.48466753  0.01484031    -0.22200
C19         C  0.10154764  0.00635200  0.47767358    -0.22200
C20         C  0.10373515  0.48842771  0.02299077    -0.22200
C21         C  0.43914266  0.04137831  0.44818314    -0.17600
C22         C  0.05911365  0.03645708  0.43716595    -0.17600
C23         C  0.06032244  0.45699840  0.05949422    -0.17600
C24         C  0.43994863  0.45676773  0.05843622    -0.17600
H25         H  0.46871335  0.09776978  0.41450521     0.15300
H26         H  0.03154654  0.09405824  0.40479655     0.15300
H27         H  0.46691744  0.40040202  0.09591262     0.15300
H28         H  0.03175933  0.39941350  0.09092100     0.15300
H29         H  0.37438116  0.02183319  0.47526929     0.13600
H30         H  0.37543238  0.47520781  0.02925336     0.13600
H31         H  0.12341301  0.01550140  0.46263333     0.13600
H32         H  0.12502280  0.48045082  0.04046423     0.13600
H33         H  0.99867991  0.00396877  0.45209825     0.26900
H34         H  0.50063989  0.48704432  0.04020943     0.26900
In35       In  0.12525884  0.39964335  0.12729952     1.36900
C36         C  0.08469043  0.43799387  0.08460796     0.78300
O37         O  0.13856233  0.43124588  0.18397166    -0.60200
O38         O  0.17083537  0.42995236  0.13084833    -0.51100
C39         C  0.10675743  0.35603062  0.18447692     0.70900
O40         O  0.08623786  0.37152916  0.16248711    -0.45900
C41         C  0.14191415  0.35269709  0.07304699     0.75700
O42         O  0.07928984  0.42836005  0.12261253    -0.57800
O43         O  0.16289783  0.36759303  0.09520759    -0.47900
O44         O  0.11161885  0.42889718  0.06926361    -0.54200
C45         C  0.16533771  0.44057435  0.16838747     0.85800
O46         O  0.13591881  0.36471183  0.17923464    -0.56100
O47         O  0.11344014  0.36362687  0.07622421    -0.59400
In48       In  0.12501077  0.09692965  0.37440802     1.36900
C49         C  0.16569769  0.05666880  0.33473192     0.78300
O50         O  0.10996114  0.06630493  0.43088729    -0.60200
O51         O  0.07977045  0.06623292  0.37545382    -0.51100
C52         C  0.14385771  0.14188581  0.43076240     0.70900
O53         O  0.16283513  0.13115522  0.40214945    -0.45900
C54         C  0.10530593  0.14204019  0.31909341     0.75700
O55         O  0.17035241  0.06662116  0.37281853    -0.57800
O56         O  0.08596023  0.12862311  0.34515260    -0.47900
O57         O  0.13953026  0.06637360  0.31798262    -0.54200
C58         C  0.08402013  0.05627702  0.41364042     0.85800
O59         O  0.11678688  0.12771700  0.43245215    -0.56100
O60         O  0.13362030  0.13048725  0.31917427    -0.59400
N61         N  0.24950698  0.46923082  0.19970603    -0.35900
N62         N  0.19878933  0.50106683  0.24953362    -0.56500
N63         N  0.25027721  0.03007452  0.30305766    -0.35900
N64         N  0.30091542  0.99987499  0.25080859    -0.56500
C65         C  0.22294423  0.45133192  0.18945339     0.27700
C66         C  0.27617882  0.45134568  0.19053525     0.27700
C67         C  0.22343651  0.04688715  0.31481504     0.27700
C68         C  0.27660599  0.04825070  0.31341726     0.27700
C69         C  0.17914323  0.48445911  0.22216772     0.36300
C70         C  0.17974959  0.01334220  0.28114207     0.36300
C71         C  0.31979798  0.48571885  0.22241428     0.36300
C72         C  0.32070926  0.01801837  0.27607802     0.36300
C73         C  0.23296634  0.42180118  0.17456517    -0.21200
C74         C  0.26628040  0.42177862  0.17532415    -0.21200
C75         C  0.23297166  0.07602329  0.33189209    -0.21200
C76         C  0.26621749  0.07687851  0.33098966    -0.21200
C77         C  0.14686216  0.49203699  0.23018570    -0.22200
C78         C  0.14739871  0.00572329  0.27318300    -0.22200
C79         C  0.35177825  0.49586017  0.22709608    -0.22200
C80         C  0.35296326  0.01281844  0.26468158    -0.22200
C81         C  0.18972643  0.46038179  0.19302504    -0.17600
C82         C  0.30934706  0.46084391  0.19431313    -0.17600
C83         C  0.30995924  0.04029298  0.30769059    -0.17600
C84         C  0.19036155  0.03730511  0.31055052    -0.17600
H85         H  0.21793023  0.40170919  0.16537301     0.15300
H86         H  0.28134919  0.40165078  0.16672041     0.15300
H87         H  0.21769219  0.09546220  0.34253680     0.15300
H88         H  0.28091213  0.09706399  0.34076563     0.15300
H89         H  0.12528489  0.48311203  0.21415152     0.13600
H90         H  0.12587326  0.01450053  0.28934706     0.13600
H91         H  0.37289513  0.48863375  0.20869543     0.13600
H92         H  0.37476274  0.02326031  0.27823382     0.13600
H93         H  0.24954738  0.49319082  0.20870033     0.26900
H94         H  0.25065771  0.00672840  0.29220678     0.26900
In95       In  0.37497171  0.40120046  0.12998126     1.36900
C96         C  0.33404279  0.44137045  0.17005997     0.78300
O97         O  0.36297538  0.36501063  0.18092780    -0.60200
O98         O  0.41286262  0.37210445  0.16604366    -0.51100
C99         C  0.36064179  0.35529185  0.07405964     0.70900
O100        O  0.33843919  0.37044071  0.09363223    -0.45900
C101        C  0.41511213  0.43917424  0.08503802     0.75700
O102        O  0.32824254  0.42926252  0.13342740    -0.57800
O103        O  0.42009106  0.43154600  0.12403601    -0.47900
O104        O  0.36164016  0.43404128  0.18512838    -0.54200
C105        C  0.39196973  0.35608236  0.18680153     0.85800
O106        O  0.38907181  0.36537106  0.08119075    -0.56100
O107        O  0.38846332  0.42889533  0.07015095    -0.59400
In108      In  0.37283764  0.09854829  0.37901474     1.36900
C109        C  0.41467001  0.06087639  0.42320528     0.78300
O110        O  0.35777682  0.12349624  0.44036330    -0.60200
O111        O  0.33536272  0.13768932  0.38200284    -0.51100
C112        C  0.40123259  0.14589967  0.33527715     0.70900
O113        O  0.40860585  0.13931897  0.37381114    -0.45900
C114        C  0.33403392  0.05896438  0.33419020     0.75700
O115        O  0.41979048  0.07057367  0.38514776    -0.57800
O116        O  0.32792267  0.06803918  0.37223414    -0.47900
O117        O  0.38776060  0.07009395  0.43828105    -0.54200
C118        C  0.33991783  0.14352572  0.42140103     0.85800
O119        O  0.38254709  0.12588707  0.31766208    -0.56100
O120        O  0.36110244  0.06871214  0.32023112    -0.59400
C121        C  0.41346752  0.21001064  0.25030981    -0.27500
C122        C  0.41538184  0.23739717  0.27624050     0.06100
C123        C  0.41663507  0.23389388  0.32130718     0.25700
C124        C  0.41428994  0.20366237  0.34008347    -0.12000
C125        C  0.41038949  0.17636566  0.31433786    -0.25900
C126        C  0.41069631  0.17972290  0.26911233     0.36500
C127        C  0.41177505  0.26941162  0.25649798     0.06100
F128        F  0.41911814  0.25985414  0.34718601    -0.19700
H129        H  0.41367677  0.20179962  0.37495372     0.15900
F130        F  0.40731008  0.15389888  0.24314805    -0.23400
H131        H  0.41236855  0.21224772  0.21550390     0.17700
C132        C  0.43456232  0.28135410  0.22667959     0.25700
C133        C  0.42887402  0.31046578  0.20566054    -0.12000
C134        C  0.40016215  0.32785458  0.21359691    -0.26000
C135        C  0.37785324  0.31613394  0.24432702     0.36600
C136        C  0.38382413  0.28739624  0.26572660    -0.27600
F137        F  0.46210602  0.26474770  0.21770571    -0.19700
H138        H  0.44631435  0.31879281  0.18193211     0.15900
F139        F  0.34988785  0.33210714  0.25314941    -0.23500
H140        H  0.36593817  0.27853254  0.28852251     0.17800
C141        C  0.33020819  0.20833802  0.50478391    -0.27500
C142        C  0.32644968  0.23532978  0.47840998     0.06100
C143        C  0.32169201  0.23097691  0.43381789     0.25700
C144        C  0.32306974  0.20039649  0.41582775    -0.12000
C145        C  0.32933211  0.17365266  0.44190571    -0.25900
C146        C  0.33146696  0.17778501  0.48683760     0.36500
C147        C  0.34914360  0.26597374  0.00814112     0.06100
F148        F  0.29620196  0.23633924  0.95964898    -0.19700
H149        H  0.32127928  0.19791655  0.38110111     0.15900
F150        F  0.33629185  0.15245750  0.51326051    -0.23400
H151        H  0.33375988  0.21101938  0.53923812     0.17700
C152        C  0.32308481  0.27862933  0.03228477     0.25700
C153        C  0.32593329  0.30885642  0.05140064    -0.12000
C154        C  0.35490686  0.32660644  0.04732351    -0.26000
C155        C  0.38032432  0.31439509  0.02174257     0.36600
C156        C  0.37719249  0.28474398  0.00205800    -0.27600
F157        F  0.29589453  0.26105201  0.03996899    -0.19700
H158        H  0.30624094  0.31753243  0.07147741     0.15900
F159        F  0.40892734  0.33043203  0.01713743    -0.23500
H160        H  0.36674466  0.28325713  0.45229844     0.17800
C161        C  0.11783131  0.28477166  0.25630705    -0.27500
C162        C  0.09062907  0.26620997  0.24507493     0.06100
C163        C  0.06566276  0.27986736  0.22011705     0.25700
C164        C  0.06963649  0.31059548  0.20305214    -0.12000
C165        C  0.09835896  0.32802000  0.21118035    -0.25900
C166        C  0.12160222  0.31547213  0.23990351     0.36500
C167        C  0.09017846  0.23215840  0.25743626     0.06100
F168        F  0.03865018  0.26273816  0.20979053    -0.19700
H169        H  0.05129239  0.31985196  0.18124826     0.15900
F170        F  0.14880622  0.33226302  0.25049176    -0.23400
H171        H  0.13684302  0.27493426  0.27661175     0.17700
C172        C  0.11564921  0.21212764  0.24401369     0.25700
C173        C  0.11905081  0.18176167  0.26190342    -0.12000
C174        C  0.09695099  0.17067459  0.29322852    -0.26000
C175        C  0.06976141  0.18969121  0.30364043     0.36600
C176        C  0.06652292  0.22026618  0.28590484    -0.27600
F177        F  0.13801695  0.22254782  0.21487610    -0.19700
H178        H  0.13992122  0.16750511  0.25274314     0.15900
F179        F  0.04765734  0.17980366  0.33335025    -0.23500
H180        H  0.04661627  0.23533161  0.29632249     0.17800
C181        C  0.12951761  0.28165005  0.99984972    -0.27500
C182        C  0.15434912  0.26110843  0.01377020     0.06100
C183        C  0.17776272  0.27250487  0.04318587     0.25700
C184        C  0.17501297  0.30336212  0.06029880    -0.12000
C185        C  0.14892089  0.32322758  0.04828369    -0.25900
C186        C  0.12684193  0.31239135  0.01666791     0.36500
C187        C  0.15479554  0.23010581  0.49971653     0.06100
F188        F  0.20207253  0.25320644  0.05724820    -0.19700
H189        H  0.19223446  0.31105138  0.08471562     0.15900
F190        F  0.10214386  0.33124072  0.00266971    -0.23400
H191        H  0.10410489  0.26990880  0.48904558     0.17700
C192        C  0.13131485  0.20754217  0.51240816     0.25700
C193        C  0.12943176  0.17801186  0.49172110    -0.12000
C194        C  0.15097623  0.17021351  0.45805019    -0.26000
C195        C  0.17610955  0.19188437  0.44761863     0.36600
C196        C  0.17794576  0.22157456  0.46840724    -0.27600
F197        F  0.10010682  0.21979551  0.02577234    -0.19700
H198        H  0.11008035  0.16174526  0.50083110     0.15900
F199        F  0.19745140  0.18543826  0.41533671    -0.23500
H200        H  0.19625908  0.23862980  0.45825806     0.17800
N201        N  0.00119504  0.03184275  0.95326725    -0.35900
N202        N  0.44916753  0.49588645  0.49145676    -0.56500
N203        N  0.49954816  0.46342252  0.54207560    -0.35900
N204        N  0.04841630  0.49805063  0.50088457    -0.56500
C205        C  0.47405120  0.04732927  0.93750079     0.27700
C206        C  0.02868166  0.04687337  0.93958230     0.27700
C207        C  0.47263980  0.44628059  0.55312788     0.27700
C208        C  0.02328007  0.45098241  0.56563182     0.27700
C209        C  0.42972375  0.01755597  0.97598443     0.36300
C210        C  0.42920865  0.47892480  0.51786022     0.36300
C211        C  0.07154110  0.01517069  0.97859741     0.36300
C212        C  0.06779820  0.48121396  0.52812414     0.36300
C213        C  0.48414222  0.07545538  0.91813859    -0.21200
C214        C  0.02000682  0.07454864  0.91792177    -0.21200
C215        C  0.48218686  0.41751466  0.57112804    -0.21200
C216        C  0.01298010  0.42318496  0.58567135    -0.21200
C217        C  0.39750206  0.01290106  0.98834283    -0.22200
C218        C  0.39701954  0.48691349  0.50956966    -0.22200
C219        C  0.10367404  0.00872753  0.98960836    -0.22200
C220        C  0.10027494  0.48728235  0.51842131    -0.22200
C221        C  0.44059352  0.03921686  0.94355231    -0.17600
C222        C  0.06163788  0.03732939  0.94634063    -0.17600
C223        C  0.05674045  0.45904769  0.55982801    -0.17600
C224        C  0.43950518  0.45547996  0.54808564    -0.17600
H225        H  0.46922116  0.09489576  0.90662464     0.15300
H226        H  0.03586202  0.09274518  0.90481341     0.15300
H227        H  0.46682113  0.39804901  0.58172135     0.15300
H228        H  0.02773573  0.40393764  0.59810891     0.15300
H229        H  0.37575180  0.02355691  0.97507497     0.13600
H230        H  0.37521584  0.47819189  0.52519785     0.13600
H231        H  0.12570986  0.01785326  0.97500117     0.13600
H232        H  0.12185736  0.47813831  0.53406754     0.13600
H233        H  0.00015070  0.00944015  0.96808739     0.26900
H234        H  0.49992279  0.48676960  0.53091276     0.26900
In235      In  0.12234944  0.40174447  0.62841275     1.36900
C236        C  0.08120749  0.44018465  0.58548280     0.78300
O237        O  0.13904660  0.43192326  0.68472076    -0.60200
O238        O  0.16740824  0.43275519  0.62765103    -0.51100
C239        C  0.10799584  0.35566931  0.68492361     0.70900
O240        O  0.08592489  0.37194051  0.66672400    -0.45900
C241        C  0.13747296  0.35506366  0.57379861     0.75700
O242        O  0.07669858  0.43194331  0.62439547    -0.57800
O243        O  0.15917941  0.37128708  0.59286318    -0.47900
O244        O  0.10731810  0.42961077  0.56957003    -0.54200
C245        C  0.16440837  0.44218349  0.66620742     0.85800
O246        O  0.13653421  0.36543568  0.67755617    -0.56100
O247        O  0.10878825  0.36475343  0.57998410    -0.59400
In248      In  0.12690874  0.09355025  0.87675255     1.36900
C249        C  0.16699157  0.05523403  0.83275124     0.78300
O250        O  0.11256200  0.06627032  0.93666684    -0.60200
O251        O  0.08309620  0.06127625  0.88091960    -0.51100
C252        C  0.14384456  0.13830097  0.93302250     0.70900
O253        O  0.16515904  0.12363547  0.91117267    -0.45900
C254        C  0.10880662  0.13968337  0.82217430     0.75700
O255        O  0.17257828  0.06394263  0.87118968    -0.57800
O256        O  0.08800798  0.12337794  0.84278550    -0.47900
O257        O  0.14006593  0.06484341  0.81810538    -0.54200
C258        C  0.08692789  0.05470723  0.92046719     0.85800
O259        O  0.11517804  0.12808066  0.92808113    -0.56100
O260        O  0.13781918  0.13078390  0.82766558    -0.59400
N261        N  0.25004580  0.47052610  0.69219480    -0.35900
N262        N  0.19980939  0.50097189  0.74683705    -0.56500
N263        N  0.25134817  0.02944736  0.79859037    -0.35900
N264        N  0.30177659  0.99710249  0.74868005    -0.56500
C265        C  0.22301666  0.45313216  0.68221753     0.27700
C266        C  0.27638175  0.45291951  0.68012156     0.27700
C267        C  0.22454229  0.04636550  0.81044136     0.27700
C268        C  0.27792388  0.04740711  0.80911747     0.27700
C269        C  0.17993364  0.48567615  0.71855146     0.36300
C270        C  0.18022440  0.01415873  0.77556250     0.36300
C271        C  0.32108603  0.48422155  0.71516078     0.36300
C272        C  0.32181461  0.01593808  0.77265928     0.36300
C273        C  0.23241982  0.42431927  0.66433734    -0.21200
C274        C  0.26571797  0.42413818  0.66312797    -0.21200
C275        C  0.23429091  0.07534774  0.82771017    -0.21200
C276        C  0.26762266  0.07599712  0.82690078    -0.21200
C277        C  0.14780266  0.49396114  0.72650598    -0.22200
C278        C  0.14775431  0.00772140  0.76619335    -0.22200
C279        C  0.35354743  0.49074981  0.72437617    -0.22200
C280        C  0.35396900  0.00996795  0.76134198    -0.22200
C281        C  0.18987143  0.46192508  0.68866402    -0.17600
C282        C  0.30994672  0.46128185  0.68449197    -0.17600
C283        C  0.31140262  0.03945991  0.80293387    -0.17600
C284        C  0.19128215  0.03702731  0.80627591    -0.17600
H285        H  0.21703381  0.40463304  0.65457832     0.15300
H286        H  0.28022986  0.40412712  0.65259645     0.15300
H287        H  0.21902044  0.09476988  0.83847861     0.15300
H288        H  0.28242206  0.09604622  0.83689102     0.15300
H289        H  0.12617657  0.48623285  0.70943159     0.13600
H290        H  0.12612477  0.01700483  0.78150630     0.13600
H291        H  0.37515150  0.48181095  0.70862625     0.13600
H292        H  0.37593489  0.02055673  0.77420555     0.13600
H293        H  0.25032671  0.49379948  0.70347012     0.26900
H294        H  0.25141738  0.00621058  0.78755362     0.26900
In295      In  0.37363471  0.40005033  0.61868907     1.36900
C296        C  0.33416245  0.44167655  0.65923304     0.78300
O297        O  0.36626673  0.36776387  0.67554263    -0.60200
O298        O  0.41318279  0.36843813  0.64750698    -0.51100
C299        C  0.35161469  0.35459752  0.56545768     0.70900
O300        O  0.33388262  0.36685401  0.59431285    -0.45900
C301        C  0.41470299  0.43743308  0.57414839     0.75700
O302        O  0.32808576  0.43036749  0.62221554    -0.57800
O303        O  0.41988427  0.42876680  0.61267781    -0.47900
O304        O  0.36150500  0.43320229  0.67386189    -0.54200
C305        C  0.39445270  0.35596346  0.67511205     0.85800
O306        O  0.37937835  0.36718413  0.56219825    -0.56100
O307        O  0.38763020  0.42816337  0.55929929    -0.59400
In308      In  0.37788405  0.09708202  0.87134038     1.36900
C309        C  0.41640599  0.05754334  0.91676343     0.78300
O310        O  0.39147472  0.13352940  0.92006219    -0.60200
O311        O  0.34096879  0.12730219  0.90745057    -0.51100
C312        C  0.39632938  0.14336480  0.81717446     0.70900
O313        O  0.41709780  0.12560506  0.83546512    -0.45900
C314        C  0.33618790  0.05885988  0.82778152     0.75700
O315        O  0.42188193  0.06524828  0.87789752    -0.57800
O316        O  0.33129421  0.06839999  0.86597556    -0.47900
O317        O  0.39004533  0.06857160  0.93133364    -0.54200
C318        C  0.36284075  0.14312277  0.92685996     0.85800
O319        O  0.36713984  0.13549548  0.82416855    -0.56100
O320        O  0.36309137  0.06815919  0.81244924    -0.59400
C321        C  0.38466824  0.21566910  0.74654975    -0.27500
C322        C  0.41205124  0.23430511  0.75669134     0.06100
C323        C  0.43670517  0.22108789  0.78278787     0.25700
C324        C  0.43283722  0.19030678  0.80027478    -0.12000
C325        C  0.40434791  0.17246577  0.79195111    -0.25900
C326        C  0.38082128  0.18519632  0.76376178     0.36500
C327        C  0.41249188  0.26808951  0.74219936     0.06100
F328        F  0.46336647  0.23860350  0.79354166    -0.19700
H329        H  0.45115801  0.18122067  0.82224141     0.15900
F330        F  0.35334662  0.16858451  0.75396441    -0.23400
H331        H  0.36557952  0.22523549  0.72613105     0.17700
C332        C  0.43528251  0.27945304  0.71191081     0.25700
C333        C  0.43063664  0.30922717  0.69202950    -0.12000
C334        C  0.40341938  0.32816318  0.70238819    -0.26000
C335        C  0.38239385  0.31784745  0.73552865     0.36600
C336        C  0.38682643  0.28809478  0.75484263    -0.27600
F337        F  0.46066373  0.26094566  0.69940083    -0.19700
H338        H  0.44729680  0.31662692  0.66680981     0.15900
F339        F  0.35659883  0.33584091  0.74803312    -0.23500
H340        H  0.36926528  0.27998606  0.77857621     0.17800
C341        C  0.37754771  0.21419486  0.99889572    -0.27500
C342        C  0.34940307  0.23253398  0.99205542     0.06100
C343        C  0.32373141  0.21938772  0.96746678     0.25700
C344        C  0.32725156  0.18921184  0.94835086    -0.12000
C345        C  0.35642799  0.17193821  0.95312021    -0.25900
C346        C  0.38130219  0.18459112  0.97933971     0.36500
C347        C  0.32974645  0.26771001  0.49749579     0.06100
F348        F  0.31649993  0.25633581  0.40754657    -0.19700
H349        H  0.30788381  0.18014537  0.92793559     0.15900
F350        F  0.40996583  0.16896909  0.98486669    -0.23400
H351        H  0.39740764  0.22339104  0.01837811     0.17700
C352        C  0.31214613  0.27623131  0.53468485     0.25700
C353        C  0.31801732  0.30539901  0.55524284    -0.12000
C354        C  0.34192126  0.32642939  0.53954995    -0.26000
C355        C  0.35886235  0.31836349  0.50154941     0.36600
C356        C  0.35263878  0.28938163  0.48065615    -0.27600
F357        F  0.28965414  0.25602654  0.55158174    -0.19700
H358        H  0.30485270  0.31089339  0.58460577     0.15900
F359        F  0.38203659  0.33811278  0.48518403    -0.23500
H360        H  0.39744760  0.27584355  0.98315273     0.17800
C361        C  0.12352252  0.28151951  0.75144599    -0.27500
C362        C  0.09587701  0.26289113  0.74225040     0.06100
C363        C  0.07041345  0.27652625  0.71799057     0.25700
C364        C  0.07332315  0.30781353  0.70210596    -0.12000
C365        C  0.10186952  0.32575844  0.70941132    -0.25900
C366        C  0.12675361  0.31233654  0.73493916     0.36500
C367        C  0.09529340  0.22898429  0.75662992     0.06100
F368        F  0.04380099  0.25897068  0.70718444    -0.19700
H369        H  0.05410069  0.31725979  0.68183593     0.15900
F370        F  0.15491921  0.32845410  0.74259638    -0.23400
H371        H  0.14328501  0.27170642  0.77047068     0.17700
C372        C  0.12164343  0.20892670  0.74651860     0.25700
C373        C  0.12460748  0.17910785  0.76606644    -0.12000
C374        C  0.10115098  0.16817919  0.79561965    -0.26000
C375        C  0.07328977  0.18701410  0.80309456     0.36600
C376        C  0.07052201  0.21728289  0.78384130    -0.27600
F377        F  0.14519882  0.21865512  0.71865860    -0.19700
H378        H  0.14605345  0.16495626  0.75919399     0.15900
F379        F  0.04994031  0.17723248  0.83119976    -0.23500
H380        H  0.04992501  0.23223161  0.79196920     0.17800
C381        C  0.12371987  0.28059753  0.50754568    -0.27500
C382        C  0.15246471  0.26344714  0.51539398     0.06100
C383        C  0.17789248  0.27816981  0.53852419     0.25700
C384        C  0.17375996  0.30897255  0.55531598    -0.12000
C385        C  0.14426701  0.32549344  0.54923867    -0.25900
C386        C  0.11960671  0.31126810  0.52405968     0.36500
C387        C  0.15440347  0.22761685  0.99849830     0.06100
F388        F  0.20592693  0.26217139  0.54685365    -0.19700
H389        H  0.19302006  0.31926117  0.57482719     0.15900
F390        F  0.09109830  0.32663638  0.51622435    -0.23400
H391        H  0.11168611  0.27356360  0.97642801     0.17700
C392        C  0.12646796  0.20860957  0.00407071     0.25700
C393        C  0.12479272  0.17839330  0.98569690    -0.12000
C394        C  0.15030341  0.16676905  0.95991840    -0.26000
C395        C  0.17885147  0.18525016  0.95545265     0.36600
C396        C  0.18098493  0.21528996  0.97525397    -0.27600
F397        F  0.10938281  0.21457856  0.54380920    -0.19700
H398        H  0.10250281  0.16478963  0.98965468     0.15900
F399        F  0.20354168  0.17553482  0.92945454    -0.23500
H400        H  0.20256883  0.22974581  0.97022664     0.17800
N401        N  0.99830165  0.52749547  0.44610930    -0.35900
N402        N  0.44943139  0.99926038  0.00088686    -0.56500
N403        N  0.50032582  0.96709362  0.05026231    -0.35900
N404        N  0.05127715  0.99840166  0.00474192    -0.56500
C405        C  0.47444978  0.54538734  0.43052913     0.27700
C406        C  0.02507957  0.54488970  0.43530948     0.27700
C407        C  0.47367261  0.94910204  0.05962584     0.27700
C408        C  0.02546156  0.95119482  0.06711831     0.27700
C409        C  0.42975411  0.51452204  0.46654665     0.36300
C410        C  0.42994342  0.98312878  0.02877877     0.36300
C411        C  0.06847635  0.51432829  0.47381431     0.36300
C412        C  0.07042677  0.98166605  0.03238794     0.36300
C413        C  0.48536510  0.57395401  0.41328298    -0.21200
C414        C  0.01536928  0.57329790  0.41654114    -0.21200
C415        C  0.48339767  0.91914541  0.07329721    -0.21200
C416        C  0.01412583  0.92238036  0.08305115    -0.21200
C417        C  0.39732390  0.50874130  0.47669400    -0.22200
C418        C  0.39773346  0.99173679  0.02215677    -0.22200
C419        C  0.10067485  0.50752813  0.48373361    -0.22200
C420        C  0.10295324  0.98826728  0.02406365    -0.22200
C421        C  0.44084466  0.53829060  0.43716356    -0.17600
C422        C  0.05827601  0.53668467  0.44208228    -0.17600
C423        C  0.05901602  0.95875612  0.06264722    -0.17600
C424        C  0.44064770  0.95886155  0.05738985    -0.17600
H425        H  0.47111253  0.59446801  0.40396545     0.15300
H426        H  0.03047535  0.59302290  0.40622449     0.15300
H427        H  0.46804593  0.89913747  0.08194535     0.15300
H428        H  0.02825933  0.90182999  0.09264631     0.15300
H429        H  0.37574436  0.51924775  0.46270348     0.13600
H430        H  0.37631717  0.98336585  0.03907591     0.13600
H431        H  0.12252137  0.51622141  0.46815138     0.13600
H432        H  0.12430553  0.97926487  0.04042861     0.13600
H433        H  0.99818545  0.50421354  0.45829886     0.26900
H434        H  0.50047246  0.99113233  0.04267177     0.26900
In435      In  0.12263015  0.89889494  0.12980752     1.36900
C436        C  0.08284385  0.93892686  0.08779272     0.78300
O437        O  0.13810510  0.92811846  0.18750938    -0.60200
O438        O  0.16893707  0.92846376  0.13299429    -0.51100
C439        C  0.10158981  0.85433210  0.18475708     0.70900
O440        O  0.08235128  0.86836105  0.15921778    -0.45900
C441        C  0.14166161  0.85313284  0.07563322     0.75700
O442        O  0.07730122  0.92925946  0.12581053    -0.57800
O443        O  0.16101488  0.86618056  0.10197614    -0.47900
O444        O  0.10946262  0.92912063  0.07238723    -0.54200
C445        C  0.16467493  0.93763878  0.17148886     0.85800
O446        O  0.13031904  0.86488778  0.18400785    -0.56100
O447        O  0.11374601  0.86550635  0.07461939    -0.59400
In448      In  0.12295776  0.59617863  0.37626807     1.36900
C449        C  0.16459683  0.55849113  0.33355003     0.78300
O450        O  0.10897941  0.56641487  0.43402723    -0.60200
O451        O  0.07883334  0.56420668  0.37860330    -0.51100
C452        C  0.14282717  0.64182907  0.43025089     0.70900
O453        O  0.16193286  0.62903954  0.40344314    -0.45900
C454        C  0.10128905  0.64086662  0.32223009     0.75700
O455        O  0.16837079  0.56580518  0.37291124    -0.57800
O456        O  0.08272487  0.62802238  0.34976586    -0.47900
O457        O  0.13869800  0.56923588  0.31722149    -0.54200
C458        C  0.08312733  0.55566577  0.41738439     0.85800
O459        O  0.11488191  0.62943519  0.43143483    -0.56100
O460        O  0.12924981  0.62869111  0.32028808    -0.59400
N461        N  0.24971191  0.96674722  0.20087449    -0.35900
N462        N  0.19922255  0.99666451  0.25384316    -0.56500
N463        N  0.24982709  0.53228783  0.30229486    -0.35900
N464        N  0.30058524  0.50122967  0.25125136    -0.56500
C465        C  0.22318012  0.94907297  0.18944361     0.27700
C466        C  0.27665170  0.95011537  0.18876589     0.27700
C467        C  0.22294350  0.54860589  0.31533165     0.27700
C468        C  0.27641595  0.54918840  0.31557993     0.27700
C469        C  0.17927146  0.97908962  0.22807317     0.36300
C470        C  0.17904842  0.51854924  0.27547965     0.36300
C471        C  0.32047259  0.98326225  0.22358903     0.36300
C472        C  0.32035505  0.52063516  0.27476076     0.36300
C473        C  0.23356823  0.92097406  0.17041673    -0.21200
C474        C  0.26693488  0.92157175  0.17012247    -0.21200
C475        C  0.23274246  0.57609360  0.33665099    -0.21200
C476        C  0.26607555  0.57641244  0.33690460    -0.21200
C477        C  0.14703487  0.98491538  0.23915806    -0.22200
C478        C  0.14673188  0.51279702  0.26433596    -0.22200
C479        C  0.35276350  0.99152038  0.23115544    -0.22200
C480        C  0.35226557  0.51728268  0.26054507    -0.22200
C481        C  0.18969293  0.95672407  0.19628105    -0.17600
C482        C  0.30993870  0.95936821  0.19390940    -0.17600
C483        C  0.30991316  0.54218663  0.30760100    -0.17600
C484        C  0.18960383  0.54038525  0.30801478    -0.17600
H485        H  0.21882269  0.90117581  0.15944545     0.15300
H486        H  0.28215757  0.90231788  0.15876789     0.15300
H487        H  0.21761875  0.59503703  0.34915028     0.15300
H488        H  0.28082270  0.59565617  0.34955797     0.15300
H489        H  0.12506402  0.97545461  0.22480608     0.13600
H490        H  0.12486204  0.52218378  0.27891305     0.13600
H491        H  0.37434761  0.98317929  0.21471538     0.13600
H492        H  0.37397003  0.52909652  0.27217619     0.13600
H493        H  0.24943423  0.98985288  0.21315100     0.26900
H494        H  0.24988558  0.51002475  0.28780827     0.26900
In495      In  0.37697576  0.90151559  0.12858643     1.36900
C496        C  0.33500067  0.94048285  0.16938024     0.78300
O497        O  0.36580772  0.86538285  0.17836457    -0.60200
O498        O  0.41573886  0.87713331  0.16941258    -0.51100
C499        C  0.36330214  0.85264006  0.07580914     0.70900
O500        O  0.34110425  0.86789280  0.09515585    -0.45900
C501        C  0.41658937  0.94017783  0.08369988     0.75700
O502        O  0.33067232  0.93080311  0.13111622    -0.57800
O503        O  0.42283382  0.93072986  0.12159280    -0.47900
O504        O  0.36159170  0.93141506  0.18566949    -0.54200
C505        C  0.39500922  0.85960575  0.18824358     0.85800
O506        O  0.39144521  0.86403148  0.08127264    -0.56100
O507        O  0.38926661  0.93095534  0.06958651    -0.59400
In508      In  0.37538639  0.60047893  0.37602438     1.36900
C509        C  0.41649183  0.55941261  0.41472741     0.78300
O510        O  0.37771265  0.63286853  0.43379334    -0.60200
O511        O  0.33362080  0.63192282  0.39846686    -0.51100
C512        C  0.39853434  0.64666651  0.32499113     0.70900
O513        O  0.41544390  0.63513002  0.35526129    -0.45900
C514        C  0.33470818  0.56131511  0.33266080     0.75700
O515        O  0.42056350  0.56969503  0.37672327    -0.57800
O516        O  0.33146842  0.56777773  0.37234545    -0.47900
O517        O  0.39087383  0.56967033  0.43239811    -0.54200
C518        C  0.34976815  0.64461523  0.42856444     0.85800
O519        O  0.37180594  0.63256523  0.31914216    -0.56100
O520        O  0.35962969  0.57387670  0.31588717    -0.59400
C521        C  0.38975495  0.71792643  0.25191702    -0.27500
C522        C  0.41465566  0.73807991  0.26688094     0.06100
C523        C  0.43761978  0.72602734  0.29638579     0.25700
C524        C  0.43385744  0.69510878  0.31318580    -0.12000
C525        C  0.40724228  0.67592465  0.30063317    -0.25900
C526        C  0.38596198  0.68732299  0.26846790     0.36500
C527        C  0.41336472  0.77223591  0.25460813     0.06100
F528        F  0.46211354  0.74482590  0.31131565    -0.19700
H529        H  0.45061013  0.68692768  0.33783237     0.15900
F530        F  0.36011653  0.66973853  0.25476351    -0.23400
H531        H  0.37209530  0.72655238  0.22865790     0.17700
C532        C  0.43922199  0.78782287  0.23337356     0.25700
C533        C  0.43419086  0.81789919  0.21456095    -0.12000
C534        C  0.40340177  0.83260453  0.21684251    -0.26000
C535        C  0.37871123  0.81813718  0.24156348     0.36600
C536        C  0.38377725  0.78843166  0.26024491    -0.27600
F537        F  0.46836998  0.77310717  0.22803164    -0.19700
H538        H  0.45359993  0.82860071  0.19575649     0.15900
F539        F  0.34883925  0.83174178  0.24553703    -0.23500
H540        H  0.36378039  0.77718089  0.27734800     0.17800
C541        C  0.34497260  0.70781261  0.51529938    -0.27500
C542        C  0.32648007  0.73143622  0.49466597     0.06100
C543        C  0.31245421  0.72475910  0.45422051     0.25700
C544        C  0.31806797  0.69534542  0.43410080    -0.12000
C545        C  0.33833856  0.67249342  0.45361122    -0.25900
C546        C  0.35109433  0.67872909  0.49491271     0.36500
C547        C  0.35102612  0.76154831  0.01310759     0.06100
F548        F  0.30083694  0.73735619  0.95580565    -0.19700
H549        H  0.30817909  0.69119956  0.40215314     0.15900
F550        F  0.37044488  0.65711596  0.51497110    -0.23400
H551        H  0.35619244  0.71257249  0.54631573     0.17700
C552        C  0.32469628  0.77555010  0.03520149     0.25700
C553        C  0.32806936  0.80596072  0.05381541    -0.12000
C554        C  0.35777985  0.82276808  0.05092317    -0.26000
C555        C  0.38360685  0.80901879  0.02747603     0.36600
C556        C  0.38012853  0.77894952  0.00880439    -0.27600
F557        F  0.29648080  0.75912524  0.04098573    -0.19700
H558        H  0.30792206  0.81574732  0.07206924     0.15900
F559        F  0.41275850  0.82415332  0.02357606    -0.23500
H560        H  0.34750650  0.78595453  0.45758408     0.17800
C561        C  0.11006481  0.78550386  0.26191987    -0.27500
C562        C  0.08580174  0.76471628  0.24682102     0.06100
C563        C  0.06335534  0.77559076  0.21590171     0.25700
C564        C  0.06679942  0.80614038  0.19804172    -0.12000
C565        C  0.09270616  0.82606053  0.21083238    -0.25900
C566        C  0.11343432  0.81594695  0.24437426     0.36500
C567        C  0.08636545  0.73105369  0.26085283     0.06100
F568        F  0.03966384  0.75589385  0.20082479    -0.19700
H569        H  0.05058838  0.81333947  0.17221680     0.15900
F570        F  0.13796952  0.83492770  0.25885057    -0.23400
H571        H  0.12726401  0.77761598  0.28623363     0.17700
C572        C  0.11310925  0.71186466  0.24992901     0.25700
C573        C  0.11617241  0.68143616  0.26742184    -0.12000
C574        C  0.09298900  0.66963920  0.29681175    -0.26000
C575        C  0.06515450  0.68814640  0.30583170     0.36600
C576        C  0.06187567  0.71863641  0.28771737    -0.27600
F577        F  0.13698331  0.72307704  0.22358431    -0.19700
H578        H  0.13776249  0.66775306  0.25966873     0.15900
F579        F  0.04220782  0.67773078  0.33408644    -0.23500
H580        H  0.04108428  0.73317252  0.29636126     0.17800
C581        C  0.13238523  0.78130939  0.00309983    -0.27500
C582        C  0.15857666  0.76230552  0.01672897     0.06100
C583        C  0.18152018  0.77504314  0.04566731     0.25700
C584        C  0.17716437  0.80574521  0.06246790    -0.12000
C585        C  0.14975631  0.82400660  0.05092919    -0.25900
C586        C  0.12784493  0.81178047  0.02002227     0.36500
C587        C  0.15591127  0.73173139  0.49260350     0.06100
F588        F  0.20673885  0.75703213  0.06000941    -0.19700
H589        H  0.19420498  0.81445890  0.08647318     0.15900
F590        F  0.10116070  0.82855877  0.00757655    -0.23400
H591        H  0.10584919  0.77180971  0.47911803     0.17700
C592        C  0.13225168  0.71016061  0.50753813     0.25700
C593        C  0.12962595  0.67996492  0.48907540    -0.12000
C594        C  0.15088100  0.67052971  0.45590160    -0.26000
C595        C  0.17656741  0.69105619  0.44391270     0.36600
C596        C  0.17892403  0.72154192  0.46211706    -0.27600
F597        F  0.10852398  0.71896362  0.03864307    -0.19700
H598        H  0.10999077  0.66445129  0.49945486     0.15900
F599        F  0.19787397  0.68268058  0.41242265    -0.23500
H600        H  0.19754178  0.73780835  0.45064484     0.17800
N601        N  0.00185990  0.52712092  0.94912620    -0.35900
N602        N  0.44834141  0.99969277  0.50332901    -0.56500
N603        N  0.49956076  0.96715611  0.55322425    -0.35900
N604        N  0.04931080  0.99632704  0.49426525    -0.56500
C605        C  0.47458343  0.54415652  0.93749788     0.27700
C606        C  0.02870105  0.54433044  0.93764004     0.27700
C607        C  0.47305153  0.94878363  0.56203518     0.27700
C608        C  0.02408683  0.94994448  0.55980890     0.27700
C609        C  0.43013412  0.51257118  0.97224840     0.36300
C610        C  0.42885256  0.98199525  0.52946168     0.36300
C611        C  0.07236423  0.51407917  0.97630088     0.36300
C612        C  0.06871806  0.97948243  0.52152197     0.36300
C613        C  0.48514166  0.57267274  0.91969101    -0.21200
C614        C  0.01880455  0.57271812  0.91896878    -0.21200
C615        C  0.48324353  0.91925164  0.57689848    -0.21200
C616        C  0.01341327  0.92247424  0.58032754    -0.21200
C617        C  0.39775651  0.50535315  0.98054344    -0.22200
C618        C  0.39648892  0.98959600  0.52165599    -0.22200
C619        C  0.10447854  0.50890059  0.98864524    -0.22200
C620        C  0.10117550  0.98584515  0.51209834    -0.22200
C621        C  0.44111485  0.53569749  0.94173710    -0.17600
C622        C  0.06210489  0.53644058  0.94456618    -0.17600
C623        C  0.05767923  0.95747002  0.55348618    -0.17600
C624        C  0.43972310  0.95754883  0.55790145    -0.17600
H625        H  0.47057179  0.59239306  0.90828090     0.15300
H626        H  0.03377867  0.59250953  0.90858881     0.15300
H627        H  0.46832524  0.89884137  0.58506999     0.15300
H628        H  0.02790745  0.90300761  0.59267791     0.15300
H629        H  0.37627497  0.51417509  0.96429526     0.13600
H630        H  0.37493561  0.98011268  0.53709142     0.13600
H631        H  0.12656294  0.51886480  0.97529746     0.13600
H632        H  0.12276896  0.97698930  0.52801793     0.13600
H633        H  0.00161013  0.50393006  0.96166712     0.26900
H634        H  0.49937281  0.99108659  0.54451222     0.26900
In635      In  0.12342968  0.90024496  0.62290899     1.36900
C636        C  0.08221863  0.93869836  0.57939013     0.78300
O637        O  0.13802527  0.92903400  0.68150948    -0.60200
O638        O  0.16996724  0.92922107  0.62801171    -0.51100
C639        C  0.10971416  0.85357050  0.67855425     0.70900
O640        O  0.08750667  0.87031837  0.66152481    -0.45900
C641        C  0.13845063  0.85547678  0.56593115     0.75700
O642        O  0.07754703  0.93023471  0.61813801    -0.57800
O643        O  0.15997771  0.87360946  0.58197731    -0.47900
O644        O  0.10873681  0.92866087  0.56404708    -0.54200
C645        C  0.16504214  0.93822045  0.66643462     0.85800
O646        O  0.13826233  0.86241590  0.66937704    -0.56100
O647        O  0.10963307  0.86186745  0.57700869    -0.59400
In648      In  0.12794899  0.59578876  0.87939163     1.36900
C649        C  0.16740794  0.55711007  0.83404135     0.78300
O650        O  0.11348145  0.56550264  0.93657135    -0.60200
O651        O  0.08254420  0.56542950  0.88205913    -0.51100
C652        C  0.14663012  0.63996339  0.93674977     0.70900
O653        O  0.16701141  0.62580380  0.91291656    -0.45900
C654        C  0.10959179  0.64138354  0.82424411     0.75700
O655        O  0.17306828  0.56498334  0.87282627    -0.57800
O656        O  0.08912791  0.62689956  0.84766977    -0.47900
O657        O  0.14072812  0.56764275  0.81986033    -0.54200
C658        C  0.08705299  0.55581601  0.92029358     0.85800
O659        O  0.11784812  0.62981449  0.93296729    -0.56100
O660        O  0.13833319  0.63120720  0.82778515    -0.59400
N661        N  0.25003266  0.96435814  0.69937735    -0.35900
N662        N  0.19962875  0.99691462  0.74892351    -0.56500
N663        N  0.25134112  0.53067370  0.79755781    -0.35900
N664        N  0.30170341  0.50099218  0.74250206    -0.56500
C665        C  0.22311507  0.94720489  0.68811617     0.27700
C666        C  0.27647352  0.94622588  0.68959633     0.27700
C667        C  0.22490542  0.54742854  0.81136427     0.27700
C668        C  0.27817774  0.54816127  0.80805692     0.27700
C669        C  0.17961164  0.97995887  0.72253012     0.36300
C670        C  0.18029850  0.51812313  0.77352789     0.36300
C671        C  0.32100466  0.97948627  0.72218102     0.36300
C672        C  0.32171899  0.51759977  0.76929253     0.36300
C673        C  0.23267196  0.91789157  0.67197662    -0.21200
C674        C  0.26603426  0.91719665  0.67314159    -0.21200
C675        C  0.23520756  0.57577601  0.82987742    -0.21200
C676        C  0.26845857  0.57631411  0.82760443    -0.21200
C677        C  0.14738700  0.98692150  0.73214862    -0.22200
C678        C  0.14792438  0.51367679  0.76174972    -0.22200
C679        C  0.35340330  0.98761477  0.72901447    -0.22200
C680        C  0.35393805  0.51103629  0.75902453    -0.22200
C681        C  0.18993396  0.95662315  0.69218470    -0.17600
C682        C  0.30992762  0.95494736  0.69381079    -0.17600
C683        C  0.31144000  0.53990459  0.80117490    -0.17600
C684        C  0.19145232  0.53906643  0.80661974    -0.17600
H685        H  0.21723287  0.89839658  0.66163310     0.15300
H686        H  0.28081540  0.89705599  0.66371707     0.15300
H687        H  0.22035402  0.59504736  0.84205173     0.15300
H688        H  0.28360343  0.59601719  0.83795507     0.15300
H689        H  0.12548132  0.97786131  0.71712031     0.13600
H690        H  0.12624035  0.52352465  0.77622884     0.13600
H691        H  0.37478944  0.97845942  0.71292427     0.13600
H692        H  0.37586853  0.51983034  0.77427717     0.13600
H693        H  0.25042137  0.98798308  0.70928651     0.26900
H694        H  0.25127747  0.50778904  0.78511519     0.26900
In695      In  0.37545266  0.89730985  0.62447665     1.36900
C696        C  0.33419031  0.93553990  0.66853994     0.78300
O697        O  0.38696743  0.87136620  0.68595595    -0.60200
O698        O  0.41295044  0.85745571  0.63035822    -0.51100
C699        C  0.34567074  0.85251148  0.57722948     0.70900
O700        O  0.33749956  0.85850208  0.61563911    -0.45900
C701        C  0.41550258  0.93769266  0.58248227     0.75700
O702        O  0.32856397  0.92540686  0.63083990    -0.57800
O703        O  0.42130337  0.92689001  0.61975345    -0.47900
O704        O  0.36139315  0.92671881  0.68318365    -0.54200
C705        C  0.40663138  0.85184030  0.66944448     0.85800
O706        O  0.36653226  0.87153050  0.56207995    -0.56100
O707        O  0.38844193  0.92876635  0.56742551    -0.59400
In708      In  0.37773785  0.59537333  0.87179455     1.36900
C709        C  0.41697850  0.55489388  0.91558715     0.78300
O710        O  0.39069877  0.63121711  0.92187057    -0.60200
O711        O  0.34029603  0.62407937  0.90925908    -0.51100
C712        C  0.39509208  0.64233558  0.81736351     0.70900
O713        O  0.41596677  0.62379012  0.83395949    -0.45900
C714        C  0.33636338  0.55804214  0.82709139     0.75700
O715        O  0.42302307  0.56488717  0.87784926    -0.57800
O716        O  0.33154262  0.56637460  0.86577911    -0.47900
O717        O  0.38985751  0.56430703  0.92986077    -0.54200
C718        C  0.36182151  0.63983791  0.92935301     0.85800
O719        O  0.36604049  0.63509337  0.82637492    -0.56100
O720        O  0.36318177  0.56773342  0.81206311    -0.59400
C721        C  0.38551637  0.72091463  0.75802502    -0.27500
C722        C  0.41789732  0.73045653  0.75130871     0.06100
C723        C  0.44321577  0.70973894  0.76354908     0.25700
C724        C  0.43592660  0.68053899  0.78393953    -0.12000
C725        C  0.40330716  0.67137424  0.79166474    -0.25900
C726        C  0.37818641  0.69178050  0.77747327     0.36500
C727        C  0.42388669  0.76277568  0.73326295     0.06100
F728        F  0.47483303  0.71819915  0.75720257    -0.19700
H729        H  0.45577320  0.66544389  0.79450380     0.15900
F730        F  0.34629945  0.68412411  0.78331264    -0.23400
H731        H  0.36566805  0.73641246  0.74849743     0.17700
C732        C  0.43485776  0.76716737  0.69065257     0.25700
C733        C  0.43187483  0.79712168  0.67061925    -0.12000
C734        C  0.41820476  0.82309011  0.69301630    -0.26000
C735        C  0.41057187  0.81922639  0.73699423     0.36600
C736        C  0.41303064  0.78934240  0.75659180    -0.27600
F737        F  0.44583528  0.74200202  0.66738853    -0.19700
H738        H  0.43814335  0.79939633  0.63680168     0.15900
F739        F  0.39864045  0.84387114  0.76045133    -0.23500
H740        H  0.40468478  0.78651175  0.78954859     0.17800
C741        C  0.37511960  0.70724257  0.00768476    -0.27500
C742        C  0.34982719  0.72823900  0.99658976     0.06100
C743        C  0.32557925  0.71776164  0.96756084     0.25700
C744        C  0.32807882  0.68766734  0.94798292    -0.12000
C745        C  0.35477077  0.66774371  0.95697565    -0.25900
C746        C  0.37756499  0.67734247  0.98830078     0.36500
C747        C  0.32539805  0.76391399  0.51342227     0.06100
F748        F  0.29426889  0.74709299  0.43366671    -0.19700
H749        H  0.31031423  0.68082886  0.92377474     0.15900
F750        F  0.40288135  0.65816309  0.99923620    -0.23400
H751        H  0.39368817  0.71446491  0.03060957     0.17700
C752        C  0.31467206  0.76902013  0.55594048     0.25700
C753        C  0.31899978  0.79880110  0.57559924    -0.12000
C754        C  0.33448269  0.82383725  0.55336181    -0.26000
C755        C  0.34346292  0.81911918  0.50993582     0.36600
C756        C  0.33884970  0.78947135  0.49026929    -0.27600
F757        F  0.30108529  0.74486115  0.57887536    -0.19700
H758        H  0.31191251  0.80169384  0.60903960     0.15900
F759        F  0.35827483  0.84260688  0.48705364    -0.23500
H760        H  0.40065299  0.76882969  0.99161424     0.17800
C761        C  0.12511272  0.78092377  0.74750541    -0.27500
C762        C  0.09687191  0.76270568  0.74009626     0.06100
C763        C  0.07096437  0.77646678  0.71683387     0.25700
C764        C  0.07426936  0.80720437  0.69936443    -0.12000
C765        C  0.10353139  0.82442105  0.70434566    -0.25900
C766        C  0.12864580  0.81120227  0.72958580     0.36500
C767        C  0.09613438  0.72907348  0.75529329     0.06100
F768        F  0.04343019  0.75952705  0.70856897    -0.19700
H769        H  0.05469853  0.81674020  0.67976806     0.15900
F770        F  0.15717147  0.82705111  0.73585097    -0.23400
H771        H  0.14507450  0.77119007  0.76623931     0.17700
C772        C  0.12281647  0.70909438  0.74655746     0.25700
C773        C  0.12577115  0.67977311  0.76724049    -0.12000
C774        C  0.10197529  0.66924510  0.79655695    -0.26000
C775        C  0.07362384  0.68773906  0.80221545     0.36600
C776        C  0.07086716  0.71756726  0.78183022    -0.27600
F777        F  0.14676556  0.71848644  0.71906169    -0.19700
H778        H  0.14751457  0.66578347  0.76149199     0.15900
F779        F  0.04964601  0.67806063  0.82944169    -0.23500
H780        H  0.04989866  0.73237415  0.78866735     0.17800
C781        C  0.12551701  0.78264509  0.49736892    -0.27500
C782        C  0.15418341  0.76551242  0.50574206     0.06100
C783        C  0.17978747  0.78033832  0.52826172     0.25700
C784        C  0.17562402  0.81106869  0.54501022    -0.12000
C785        C  0.14590661  0.82721897  0.53943919    -0.25900
C786        C  0.12138074  0.81326339  0.51385594     0.36500
C787        C  0.15956952  0.72850195  0.00316481     0.06100
F788        F  0.20779727  0.76430508  0.53661052    -0.19700
H789        H  0.19477829  0.82133166  0.56473007     0.15900
F790        F  0.09289968  0.82872670  0.50613140    -0.23400
H791        H  0.11461991  0.77194248  0.98047237     0.17700
C792        C  0.13288737  0.70867100  0.01246770     0.25700
C793        C  0.13030040  0.67873250  0.99329623    -0.12000
C794        C  0.15431411  0.66780450  0.96455142    -0.26000
C795        C  0.18266642  0.68638355  0.95854097     0.36600
C796        C  0.18515427  0.71664774  0.97768863    -0.27600
F797        F  0.11091356  0.71881667  0.53892320    -0.19700
H798        H  0.10852589  0.66474515  0.99925024     0.15900
F799        F  0.20682015  0.67640748  0.93187577    -0.23500
H800        H  0.20611983  0.73150818  0.97064726     0.17800
N801        N  0.49892207  0.03075476  0.45206103    -0.35900
N802        N  0.95019875  0.49710784  0.00181481    -0.56500
N803        N  0.00054319  0.46610805  0.05357786    -0.35900
N804        N  0.55158319  0.49448078  0.00224978    -0.56500
C805        C  0.97264952  0.04533720  0.42977462     0.27700
C806        C  0.52586621  0.04742371  0.44013103     0.27700
C807        C  0.97380770  0.44863345  0.06445982     0.27700
C808        C  0.52649276  0.44673903  0.06551781     0.27700
C809        C  0.92801209  0.01444701  0.46547943     0.36300
C810        C  0.93025100  0.48055123  0.02878926     0.36300
C811        C  0.56973341  0.01538102  0.47565883     0.36300
C812        C  0.57114734  0.47647818  0.02785702     0.36300
C813        C  0.98309194  0.07424423  0.41307990    -0.21200
C814        C  0.51648559  0.07649284  0.42292583    -0.21200
C815        C  0.98357704  0.41958831  0.08132076    -0.21200
C816        C  0.51571226  0.41885344  0.08492304    -0.21200
C817        C  0.89554174  0.00821661  0.47464244    -0.22200
C818        C  0.89802709  0.48747085  0.01936229    -0.22200
C819        C  0.60213304  0.00930105  0.48549990    -0.22200
C820        C  0.60353173  0.48201477  0.01707817    -0.22200
C821        C  0.93917119  0.03726328  0.43470918    -0.17600
C822        C  0.55897032  0.03810677  0.44477266    -0.17600
C823        C  0.56009805  0.45427436  0.05949133    -0.17600
C824        C  0.94060080  0.45735596  0.05931264    -0.17600
H825        H  0.96837363  0.09425575  0.40298861     0.15300
H826        H  0.53194920  0.09583037  0.41217323     0.15300
H827        H  0.96839437  0.39982429  0.09133375     0.15300
H828        H  0.53014931  0.39908804  0.09652492     0.15300
H829        H  0.87421750  0.01777984  0.45874124     0.13600
H830        H  0.87631409  0.47832352  0.03482725     0.13600
H831        H  0.62378779  0.01850784  0.47001448     0.13600
H832        H  0.62524255  0.47192208  0.03123944     0.13600
H833        H  0.49854942  0.00719027  0.46331892     0.26900
H834        H  0.00079601  0.48958371  0.04295504     0.26900
In835      In  0.62410574  0.39677001  0.13043388     1.36900
C836        C  0.58432910  0.43548040  0.08569149     0.78300
O837        O  0.63886132  0.42802455  0.18626436    -0.60200
O838        O  0.67052439  0.42610116  0.13253156    -0.51100
C839        C  0.59968472  0.35500686  0.18734895     0.70900
O840        O  0.58298977  0.36557072  0.15626281    -0.45900
C841        C  0.64753663  0.35020389  0.08045461     0.75700
O842        O  0.57891744  0.42697479  0.12421036    -0.57800
O843        O  0.66384935  0.36260786  0.11059042    -0.47900
O844        O  0.61108615  0.42541178  0.07105639    -0.54200
C845        C  0.66577785  0.43655305  0.17029626     0.85800
O846        O  0.62750066  0.36746255  0.19052379    -0.56100
O847        O  0.62016024  0.36292343  0.07434652    -0.59400
In848      In  0.62335029  0.09654149  0.37772073     1.36900
C849        C  0.66311657  0.05888985  0.33210470     0.78300
O850        O  0.60937546  0.06778772  0.43592505    -0.60200
O851        O  0.57885401  0.06516323  0.38074127    -0.51100
C852        C  0.64460098  0.14035453  0.43298575     0.70900
O853        O  0.66359184  0.12657593  0.40692316    -0.45900
C854        C  0.60279127  0.14347415  0.32678217     0.75700
O855        O  0.66675332  0.06395131  0.37206422    -0.57800
O856        O  0.58285841  0.12657256  0.34799090    -0.47900
O857        O  0.63797297  0.07158511  0.31631034    -0.54200
C858        C  0.58348399  0.05690267  0.41957190     0.85800
O859        O  0.61595146  0.12946876  0.43331302    -0.56100
O860        O  0.63202451  0.13470468  0.32990868    -0.59400
N861        N  0.75080973  0.46315467  0.20225652    -0.35900
N862        N  0.69984974  0.49611951  0.25143309    -0.56500
N863        N  0.74822738  0.03496417  0.29734806    -0.35900
N864        N  0.79853509  0.00512701  0.24465286    -0.56500
C865        C  0.72388826  0.44599161  0.19116846     0.27700
C866        C  0.77721495  0.44487139  0.19279676     0.27700
C867        C  0.72123058  0.05006924  0.31247304     0.27700
C868        C  0.77475745  0.05197497  0.31073355     0.27700
C869        C  0.68024447  0.47977077  0.22388673     0.36300
C870        C  0.67711064  0.01994884  0.27290725     0.36300
C871        C  0.82146190  0.47674207  0.22781644     0.36300
C872        C  0.81847900  0.02440725  0.26805958     0.36300
C873        C  0.73346053  0.41653253  0.17541215    -0.21200
C874        C  0.76682267  0.41584903  0.17642076    -0.21200
C875        C  0.73088870  0.07688317  0.33543304    -0.21200
C876        C  0.76422873  0.07804012  0.33439230    -0.21200
C877        C  0.64799349  0.48817244  0.23108656    -0.22200
C878        C  0.64473181  0.01445606  0.26185210    -0.22200
C879        C  0.85380956  0.48389516  0.23683307    -0.22200
C880        C  0.85043812  0.02030613  0.25428519    -0.22200
C881        C  0.69072988  0.45564614  0.19477682    -0.17600
C882        C  0.81064372  0.45317580  0.19796305    -0.17600
C883        C  0.80828644  0.04589192  0.30115748    -0.17600
C884        C  0.68789024  0.04150455  0.30553692    -0.17600
H885        H  0.71806904  0.39692261  0.16538958     0.15300
H886        H  0.78167862  0.39569414  0.16722186     0.15300
H887        H  0.71561715  0.09488151  0.35001064     0.15300
H888        H  0.77876701  0.09707240  0.34798534     0.15300
H889        H  0.62640615  0.47995293  0.21441474     0.13600
H890        H  0.62302831  0.02436379  0.27628318     0.13600
H891        H  0.87548692  0.47428920  0.22195256     0.13600
H892        H  0.87241145  0.03145291  0.26617684     0.13600
H893        H  0.75120042  0.48686345  0.21201434     0.26900
H894        H  0.74843763  0.01331347  0.28128190     0.26900
In895      In  0.87642021  0.39710295  0.12673633     1.36900
C896        C  0.83496614  0.43420048  0.17231797     0.78300
O897        O  0.89345908  0.37050721  0.18614253    -0.60200
O898        O  0.91410456  0.35755330  0.12627118    -0.51100
C899        C  0.84491139  0.35048379  0.08481178     0.70900
O900        O  0.84152766  0.35561053  0.12465170    -0.45900
C901        C  0.91604321  0.43794107  0.08410569     0.75700
O902        O  0.82989838  0.42572721  0.13375801    -0.57800
O903        O  0.92068222  0.42926916  0.12266389    -0.47900
O904        O  0.86159824  0.42413822  0.18728465    -0.54200
C905        C  0.91123588  0.35112583  0.16584763     0.85800
O906        O  0.86087793  0.37182762  0.06532413    -0.56100
O907        O  0.89027767  0.42672847  0.06786711    -0.59400
In908      In  0.87785680  0.10103958  0.36866402     1.36900
C909        C  0.91524637  0.05752052  0.40999119     0.78300
O910        O  0.88634562  0.13472395  0.42376971    -0.60200
O911        O  0.83895756  0.13364133  0.39713250    -0.51100
C912        C  0.90477654  0.14421667  0.31451345     0.70900
O913        O  0.92162688  0.12927646  0.34200869    -0.45900
C914        C  0.83367166  0.06483363  0.32566651     0.75700
O915        O  0.91978154  0.06583490  0.37117585    -0.57800
O916        O  0.83127450  0.07147760  0.36535217    -0.47900
O917        O  0.89047774  0.07016348  0.42682176    -0.54200
C918        C  0.85808436  0.14634201  0.42408050     0.85800
O919        O  0.87529768  0.13578095  0.31372283    -0.56100
O920        O  0.85904414  0.07621224  0.30858080    -0.59400
C921        C  0.90719587  0.20790947  0.22783396    -0.27500
C922        C  0.93223521  0.22810881  0.24236813     0.06100
C923        C  0.95118691  0.21830443  0.27797276     0.25700
C924        C  0.94384056  0.18970503  0.29980569    -0.12000
C925        C  0.91720633  0.17069397  0.28685751    -0.25900
C926        C  0.89972797  0.17965673  0.24965759     0.36500
C927        C  0.93523948  0.26060771  0.22303495     0.06100
F928        F  0.97618100  0.23676599  0.29226032    -0.19700
H929        H  0.95783772  0.18334856  0.32817995     0.15900
F930        F  0.87448766  0.16162663  0.23513443    -0.23400
H931        H  0.89212877  0.21486764  0.20069485     0.17700
C932        C  0.93670397  0.26485770  0.17795992     0.25700
C933        C  0.93168185  0.29505207  0.15964121    -0.12000
C934        C  0.92449720  0.32153742  0.18578088    -0.26000
C935        C  0.92529351  0.31766140  0.23092311     0.36600
C936        C  0.93098442  0.28759860  0.24924091    -0.27600
F937        F  0.94131296  0.23948106  0.15154240    -0.19700
H938        H  0.93115205  0.29721594  0.12480575     0.15900
F939        F  0.91862916  0.34253485  0.25740031    -0.23500
H940        H  0.92955920  0.28500541  0.28397224     0.17800
C941        C  0.86619667  0.21359169  0.50464354    -0.27500
C942        C  0.83990049  0.23306388  0.49314070     0.06100
C943        C  0.81686160  0.22188221  0.46318717     0.25700
C944        C  0.82159345  0.19246759  0.44257287    -0.12000
C945        C  0.84930713  0.17389419  0.45181471    -0.25900
C946        C  0.87073599  0.18413302  0.48463257     0.36500
C947        C  0.82793073  0.25866437  0.02692219     0.06100
F948        F  0.78374837  0.23400417  0.96264013    -0.19700
H949        H  0.80455164  0.18505068  0.41778816     0.15900
F950        F  0.89682286  0.16624785  0.49634980    -0.23400
H951        H  0.88390486  0.22177321  0.52817122     0.17700
C952        C  0.82648785  0.26264835  0.07197932     0.25700
C953        C  0.82947519  0.29306392  0.09025770    -0.12000
C954        C  0.83461543  0.32007131  0.06418201    -0.26000
C955        C  0.83463615  0.31618915  0.01902533     0.36600
C956        C  0.83093654  0.28583463  0.00073856    -0.27600
F957        F  0.82331041  0.23705457  0.09841257    -0.19700
H958        H  0.82972766  0.29519512  0.12510261     0.15900
F959        F  0.83975088  0.34142370  0.99251744    -0.23500
H960        H  0.87663611  0.28200624  0.46561467     0.17800
C961        C  0.60506035  0.28950046  0.26990679    -0.27500
C962        C  0.58226587  0.26760102  0.25361434     0.06100
C963        C  0.56057875  0.27740074  0.22112129     0.25700
C964        C  0.56421239  0.30751237  0.20200516    -0.12000
C965        C  0.58941465  0.32812260  0.21527278    -0.25900
C966        C  0.60845714  0.31959983  0.25130197     0.36500
C967        C  0.58459759  0.23381653  0.26702995     0.06100
F968        F  0.53787114  0.25692133  0.20536256    -0.19700
H969        H  0.54896372  0.31365833  0.17469648     0.15900
F970        F  0.63179767  0.33952610  0.26687147    -0.23400
H971        H  0.62149194  0.28258125  0.29565558     0.17700
C972        C  0.61379490  0.21727772  0.25963830     0.25700
C973        C  0.61842086  0.18705389  0.27701479    -0.12000
C974        C  0.59408607  0.17248212  0.30213651    -0.26000
C975        C  0.56384055  0.18800299  0.30698010     0.36600
C976        C  0.55916732  0.21853092  0.28936456    -0.27600
F977        F  0.63830384  0.23080431  0.23649049    -0.19700
H978        H  0.64176095  0.17554712  0.27213675     0.15900
F979        F  0.53958968  0.17461272  0.33067317    -0.23500
H980        H  0.53634414  0.23082171  0.29488221     0.17800
C981        C  0.65071392  0.28368906  0.99810314    -0.27500
C982        C  0.67110838  0.26181881  0.01909973     0.06100
C983        C  0.68646327  0.27060877  0.05778086     0.25700
C984        C  0.68054067  0.30056681  0.07592409    -0.12000
C985        C  0.65841713  0.32170915  0.05646397    -0.25900
C986        C  0.64406823  0.31329422  0.01675172     0.36500
C987        C  0.65925375  0.22946546  0.49647848     0.06100
F988        F  0.70546882  0.24950393  0.07933333    -0.19700
H989        H  0.69157298  0.30635816  0.10672778     0.15900
F990        F  0.62256735  0.33301695  0.99688973    -0.23400
H991        H  0.60925902  0.26917137  0.48322520     0.17700
C992        C  0.63752381  0.20685117  0.51350282     0.25700
C993        C  0.63481034  0.17679278  0.49467119    -0.12000
C994        C  0.65361183  0.16878146  0.45843085    -0.26000
C995        C  0.67678502  0.19080830  0.44288016     0.36600
C996        C  0.67961698  0.22095715  0.46200573    -0.27600
F997        F  0.62670919  0.21663669  0.05125886    -0.19700
H998        H  0.61672074  0.16031969  0.50705932     0.15900
F999        F  0.69443015  0.18440653  0.40686029    -0.23500
H1000       H  0.69616695  0.23833074  0.44820926     0.17800
N1001       N  0.50072009  0.03045949  0.95005385    -0.35900
N1002       N  0.94658917  0.49658473  0.49675656    -0.56500
N1003       N  0.99677234  0.46772641  0.55208623    -0.35900
N1004       N  0.55110741  0.49370201  0.49107174    -0.56500
C1005       C  0.97535635  0.04962300  0.93992716     0.27700
C1006       C  0.52743319  0.04765257  0.93812137     0.27700
C1007       C  0.96995712  0.45069872  0.56392096     0.27700
C1008       C  0.52590869  0.44589014  0.55393286     0.27700
C1009       C  0.93049637  0.02346373  0.98178821     0.36300
C1010       C  0.92648245  0.48022983  0.52366705     0.36300
C1011       C  0.57144201  0.01708365  0.97583091     0.36300
C1012       C  0.57054270  0.47633867  0.51760560     0.36300
C1013       C  0.98675406  0.07619923  0.91802210    -0.21200
C1014       C  0.51739723  0.07564966  0.91850030    -0.21200
C1015       C  0.97972604  0.42300776  0.58462080    -0.21200
C1016       C  0.51551851  0.41730499  0.57172008    -0.21200
C1017       C  0.89826288  0.02004431  0.99487550    -0.22200
C1018       C  0.89428297  0.48670605  0.51317277    -0.22200
C1019       C  0.60372030  0.01137350  0.98694014    -0.22200
C1020       C  0.60301048  0.48212655  0.50751554    -0.22200
C1021       C  0.94164815  0.04370745  0.94781143    -0.17600
C1022       C  0.56083720  0.03988996  0.94503156    -0.17600
C1023       C  0.55930412  0.45438507  0.54939100    -0.17600
C1024       C  0.93670514  0.45858445  0.55634869    -0.17600
H1025       H  0.97281230  0.09585637  0.90512965     0.15300
H1026       H  0.53228462  0.09523615  0.90722286     0.15300
H1027       H  0.96466919  0.40360952  0.59614000     0.15300
H1028       H  0.53036752  0.39765238  0.58278498     0.15300
H1029       H  0.87661750  0.03090371  0.98167853     0.13600
H1030       H  0.87236619  0.47804526  0.52860419     0.13600
H1031       H  0.62560977  0.02135673  0.97299704     0.13600
H1032       H  0.62462684  0.47247736  0.52248221     0.13600
H1033       H  0.50066409  0.00751299  0.96307672     0.26900
H1034       H  0.99687561  0.49029905  0.53850385     0.26900
In1035     In  0.62257775  0.39994475  0.62494857     1.36900
C1036       C  0.58315170  0.43668745  0.57729170     0.78300
O1037       O  0.63548386  0.43211463  0.68169405    -0.60200
O1038       O  0.66836938  0.43008503  0.62943721    -0.51100
C1039       C  0.60516978  0.35463674  0.68092304     0.70900
O1040       O  0.58407343  0.36991531  0.65951356    -0.45900
C1041       C  0.63999802  0.35304094  0.57177999     0.75700
O1042       O  0.57693264  0.42903816  0.61599842    -0.57800
O1043       O  0.66088157  0.36882400  0.59301029    -0.47900
O1044       O  0.61035868  0.42674339  0.56401627    -0.54200
C1045       C  0.66278692  0.44083340  0.66690332     0.85800
O1046       O  0.63384422  0.36487782  0.67639235    -0.56100
O1047       O  0.61121262  0.36298782  0.57565644    -0.59400
In1048     In  0.62691419  0.09898009  0.88109463     1.36900
C1049       C  0.66626456  0.05924263  0.83799272     0.78300
O1050       O  0.61115164  0.07030659  0.93882067    -0.60200
O1051       O  0.58202994  0.06799764  0.88255156    -0.51100
C1052       C  0.65085929  0.14212374  0.93636088     0.70900
O1053       O  0.66863570  0.12833739  0.90888095    -0.45900
C1054       C  0.60563914  0.14385309  0.82708271     0.75700
O1055       O  0.67111976  0.06737311  0.87679140    -0.57800
O1056       O  0.58702404  0.13111495  0.85459103    -0.47900
O1057       O  0.64027050  0.07021312  0.82220246    -0.54200
C1058       C  0.58565287  0.05948677  0.92138200     0.85800
O1059       O  0.62178867  0.13238010  0.93693190    -0.56100
O1060       O  0.63397476  0.13242679  0.82630256    -0.59400
N1061       N  0.74782185  0.46886097  0.69811491    -0.35900
N1062       N  0.69785104  0.49972455  0.74989328    -0.56500
N1063       N  0.75043653  0.03093261  0.80556128    -0.35900
N1064       N  0.80069274  0.99963995  0.75310317    -0.56500
C1065       C  0.72101101  0.45140898  0.68704585     0.27700
C1066       C  0.77438796  0.45105918  0.68787756     0.27700
C1067       C  0.72399545  0.04819693  0.81809650     0.27700
C1068       C  0.77739312  0.04777484  0.81755053     0.27700
C1069       C  0.67755743  0.48307429  0.72334366     0.36300
C1070       C  0.67926954  0.01745071  0.78173471     0.36300
C1071       C  0.81914922  0.48253487  0.72316997     0.36300
C1072       C  0.82082905  0.01766953  0.77792243     0.36300
C1073       C  0.73089951  0.42228819  0.67055546    -0.21200
C1074       C  0.76421211  0.42206574  0.67110401    -0.21200
C1075       C  0.73446078  0.07620404  0.83747043    -0.21200
C1076       C  0.76775485  0.07586667  0.83732241    -0.21200
C1077       C  0.64546084  0.48975191  0.73398479    -0.22200
C1078       C  0.64677902  0.01123928  0.77231895    -0.22200
C1079       C  0.85172621  0.48908193  0.73181124    -0.22200
C1080       C  0.85287931  0.01289552  0.76513392    -0.22200
C1081       C  0.68764612  0.46008813  0.69214959    -0.17600
C1082       C  0.80781202  0.45959139  0.69282302    -0.17600
C1083       C  0.81068459  0.03972822  0.81014715    -0.17600
C1084       C  0.69047605  0.04016954  0.81249479    -0.17600
H1085       H  0.71581674  0.40237269  0.66084640     0.15300
H1086       H  0.77916088  0.40205456  0.66162405     0.15300
H1087       H  0.71979174  0.09578085  0.84911060     0.15300
H1088       H  0.78298107  0.09517049  0.84876758     0.15300
H1089       H  0.62342530  0.48070355  0.71927199     0.13600
H1090       H  0.62526205  0.02085243  0.78759104     0.13600
H1091       H  0.87315204  0.48010234  0.71564807     0.13600
H1092       H  0.87487497  0.02325295  0.77827624     0.13600
H1093       H  0.74815041  0.49241010  0.70875804     0.26900
H1094       H  0.75013960  0.00824888  0.79262512     0.26900
In1095     In  0.87201999  0.40131152  0.62541615     1.36900
C1096       C  0.83200064  0.44043520  0.66763288     0.78300
O1097       O  0.86269109  0.36688297  0.67839105    -0.60200
O1098       O  0.91135054  0.37056855  0.65600909    -0.51100
C1099       C  0.85276092  0.35578894  0.57169136     0.70900
O1100       O  0.83271486  0.37036979  0.59551537    -0.45900
C1101       C  0.91183514  0.44032090  0.58195399     0.75700
O1102       O  0.82681147  0.43140458  0.62925435    -0.57800
O1103       O  0.91628023  0.43270727  0.62104914    -0.47900
O1104       O  0.85845659  0.43045900  0.68336365    -0.54200
C1105       C  0.89123866  0.35600458  0.67987729     0.85800
O1106       O  0.88152350  0.36626113  0.57333464    -0.56100
O1107       O  0.88580029  0.42938103  0.56602270    -0.59400
In1108     In  0.87647333  0.09931399  0.87528011     1.36900
C1109       C  0.91745917  0.06215025  0.92101637     0.78300
O1110       O  0.88529205  0.13702361  0.92522994    -0.60200
O1111       O  0.83625691  0.12814209  0.90745275    -0.51100
C1112       C  0.89510411  0.14253432  0.81702916     0.70900
O1113       O  0.91571376  0.12689147  0.83877194    -0.45900
C1114       C  0.83580033  0.05883139  0.83436829     0.75700
O1115       O  0.92205902  0.06904154  0.88169647    -0.57800
O1116       O  0.83257671  0.06649500  0.87358026    -0.47900
O1117       O  0.89127587  0.07327088  0.93584336    -0.54200
C1118       C  0.85576329  0.14445108  0.93009400     0.85800
O1119       O  0.86590267  0.13463866  0.82369614    -0.56100
O1120       O  0.86092287  0.07047149  0.81704321    -0.59400
C1121       C  0.88363213  0.21014492  0.73893424    -0.27500
C1122       C  0.90902144  0.23074507  0.75105742     0.06100
C1123       C  0.93313306  0.21972521  0.77968500     0.25700
C1124       C  0.93038922  0.18929334  0.79817079    -0.12000
C1125       C  0.90332794  0.16982794  0.78879465    -0.25900
C1126       C  0.88077004  0.17999433  0.75745669     0.36500
C1127       C  0.90747719  0.26453823  0.73741629     0.06100
F1128       F  0.95759368  0.23934180  0.79267101    -0.19700
H1129       H  0.94793137  0.18206062  0.82240820     0.15900
F1130       F  0.85486228  0.16148604  0.74645688    -0.23400
H1131       H  0.86503136  0.21808975  0.71653570     0.17700
C1132       C  0.93220825  0.27885251  0.71262451     0.25700
C1133       C  0.92799654  0.30980257  0.69637703    -0.12000
C1134       C  0.89902272  0.32671741  0.70447023    -0.26000
C1135       C  0.87515557  0.31280513  0.73124519     0.36600
C1136       C  0.87942969  0.28211447  0.74736993    -0.27600
F1137       F  0.95932418  0.26220317  0.70176309    -0.19700
H1138       H  0.94655619  0.31978579  0.67547317     0.15900
F1139       F  0.84684727  0.32816733  0.74024501    -0.23500
H1140       H  0.86022881  0.27157358  0.76674036     0.17800
C1141       C  0.85801312  0.20749015  0.01781749    -0.27500
C1142       C  0.83109469  0.22652334  0.00701707     0.06100
C1143       C  0.81029045  0.21645765  0.97345612     0.25700
C1144       C  0.81730835  0.18866971  0.94995988    -0.12000
C1145       C  0.84551948  0.17084926  0.95897553    -0.25900
C1146       C  0.86539633  0.18016492  0.99387222     0.36500
C1147       C  0.83895565  0.26610450  0.50935514     0.06100
F1148       F  0.79092492  0.24021501  0.45216381    -0.19700
H1149       H  0.80158194  0.18198921  0.92333044     0.15900
F1150       F  0.89255213  0.16333209  0.00415069    -0.23400
H1151       H  0.87446081  0.21481176  0.04336453     0.17700
C1152       C  0.81878684  0.27480879  0.54399233     0.25700
C1153       C  0.82134449  0.30531512  0.56209642    -0.12000
C1154       C  0.84457244  0.32710555  0.54642959    -0.26000
C1155       C  0.86379746  0.31867076  0.51065000     0.36600
C1156       C  0.86085975  0.28846236  0.49225066    -0.27600
F1157       F  0.79827753  0.25317799  0.56201212    -0.19700
H1158       H  0.80681592  0.31109571  0.59020984     0.15900
F1159       F  0.88640584  0.33918040  0.49461558    -0.23500
H1160       H  0.83246108  0.28330783  0.96600076     0.17800
C1161       C  0.61928050  0.28151136  0.74922417    -0.27500
C1162       C  0.59059631  0.26398604  0.74245855     0.06100
C1163       C  0.56471046  0.27815415  0.71966958     0.25700
C1164       C  0.56853236  0.30875806  0.70179330    -0.12000
C1165       C  0.59818603  0.32547797  0.70648640    -0.25900
C1166       C  0.62320894  0.31170414  0.73140558     0.36500
C1167       C  0.58950744  0.23051307  0.75771597     0.06100
F1168       F  0.53665233  0.26174295  0.71254506    -0.19700
H1169       H  0.54898225  0.31865041  0.68249398     0.15900
F1170       F  0.65223822  0.32675162  0.73711587    -0.23400
H1171       H  0.63928484  0.27125749  0.76736906     0.17700
C1172       C  0.61464363  0.20955794  0.74579370     0.25700
C1173       C  0.61797836  0.18025971  0.76634715    -0.12000
C1174       C  0.59658855  0.17122816  0.79953194    -0.26000
C1175       C  0.56982290  0.19098136  0.80920814     0.36600
C1176       C  0.56632431  0.22046279  0.78825888    -0.27600
F1177       F  0.63717600  0.21822873  0.71587606    -0.19700
H1178       H  0.63853853  0.16535775  0.75784810     0.15900
F1179       F  0.54859439  0.18303260  0.84106085    -0.23500
H1180       H  0.54682128  0.23628986  0.79791417     0.17800
C1181       C  0.62845688  0.27983907  0.50251065    -0.27500
C1182       C  0.65712108  0.26286187  0.51103236     0.06100
C1183       C  0.68187902  0.27713593  0.53573236     0.25700
C1184       C  0.67711933  0.30752718  0.55348194    -0.12000
C1185       C  0.64760239  0.32389456  0.54681223    -0.25900
C1186       C  0.62363424  0.31001244  0.52009219     0.36500
C1187       C  0.67137791  0.22848354  0.00410950     0.06100
F1188       F  0.70970570  0.26097211  0.54470906    -0.19700
H1189       H  0.69580958  0.31754265  0.57418086     0.15900
F1190       F  0.59493778  0.32501011  0.51214694    -0.23400
H1191       H  0.63839425  0.27701823  0.96848403     0.17700
C1192       C  0.64714678  0.20761906  0.01904333     0.25700
C1193       C  0.64228332  0.17829723  0.99883337    -0.12000
C1194       C  0.66175102  0.16910027  0.96368362    -0.26000
C1195       C  0.68817030  0.18871167  0.95152826     0.36600
C1196       C  0.69260920  0.21848740  0.97131981    -0.27600
F1197       F  0.61762456  0.21454613  0.54691802    -0.19700
H1198       H  0.62208934  0.16349158  0.00923068     0.15900
F1199       F  0.70803897  0.18033434  0.91841647    -0.23500
H1200       H  0.71154286  0.23433940  0.95969819     0.17800
N1201       N  0.50058089  0.52686630  0.44056662    -0.35900
N1202       N  0.94981882  0.00481575  0.00682557    -0.56500
N1203       N  0.99977522  0.97017050  0.05685357    -0.35900
N1204       N  0.55154279  0.99905580  0.00077487    -0.56500
C1205       C  0.97183479  0.54468258  0.43375065     0.27700
C1206       C  0.52773908  0.54357851  0.42944255     0.27700
C1207       C  0.97233678  0.95362371  0.06691980     0.27700
C1208       C  0.52679237  0.94886063  0.05922387     0.27700
C1209       C  0.92728402  0.51333441  0.46932913     0.36300
C1210       C  0.92999223  0.98940916  0.03504672     0.36300
C1211       C  0.57106364  0.51044746  0.46446154     0.36300
C1212       C  0.57096871  0.98234032  0.02792553     0.36300
C1213       C  0.98215187  0.57320495  0.41563753    -0.21200
C1214       C  0.51858663  0.57282210  0.41256829    -0.21200
C1215       C  0.98084066  0.92385770  0.08282213    -0.21200
C1216       C  0.51674906  0.91897610  0.07298130    -0.21200
C1217       C  0.89478468  0.50692251  0.47842378    -0.22200
C1218       C  0.89809057  0.99912617  0.02888435    -0.22200
C1219       C  0.60329371  0.50304102  0.47348846    -0.22200
C1220       C  0.60336759  0.99016017  0.02051531    -0.22200
C1221       C  0.93841744  0.53635051  0.43883524    -0.17600
C1222       C  0.56083041  0.53428598  0.43478393    -0.17600
C1223       C  0.55992668  0.95830396  0.05660935    -0.17600
C1224       C  0.93965100  0.96432698  0.06306377    -0.17600
H1225       H  0.96748084  0.59296446  0.40462222     0.15300
H1226       H  0.53412028  0.59232041  0.40258329     0.15300
H1227       H  0.96479507  0.90461756  0.09236959     0.15300
H1228       H  0.53186315  0.89878026  0.08129047     0.15300
H1229       H  0.87328861  0.51608812  0.46256577     0.13600
H1230       H  0.87655556  0.99132103  0.04607192     0.13600
H1231       H  0.62504188  0.51209882  0.45799857     0.13600
H1232       H  0.62488325  0.98138243  0.03672555     0.13600
H1233       H  0.49992538  0.50327030  0.45170714     0.26900
H1234       H  0.00090461  0.99386620  0.04728509     0.26900
In1235     In  0.62381303  0.90092382  0.12553611     1.36900
C1236       C  0.58384164  0.93934352  0.08230939     0.78300
O1237       O  0.63665545  0.93226633  0.18248706    -0.60200
O1238       O  0.66851408  0.93176234  0.12873345    -0.51100
C1239       C  0.60560087  0.85544393  0.18074499     0.70900
O1240       O  0.58513236  0.86977355  0.15722548    -0.45900
C1241       C  0.64365873  0.85570492  0.07129897     0.75700
O1242       O  0.57753363  0.92906887  0.11979472    -0.57800
O1243       O  0.66344799  0.87076005  0.09505960    -0.47900
O1244       O  0.61121156  0.93080332  0.06791095    -0.54200
C1245       C  0.66316923  0.94198075  0.16645424     0.85800
O1246       O  0.63413066  0.86650046  0.17838902    -0.56100
O1247       O  0.61480172  0.86584775  0.07278309    -0.59400
In1248     In  0.62553383  0.59603574  0.37341114     1.36900
C1249       C  0.66636945  0.55659195  0.33195150     0.78300
O1250       O  0.61089262  0.56520226  0.42980919    -0.60200
O1251       O  0.58186732  0.56355908  0.37318234    -0.51100
C1252       C  0.64219353  0.64168908  0.42974099     0.70900
O1253       O  0.66279793  0.62923474  0.40447871    -0.45900
C1254       C  0.60527248  0.64145471  0.31920579     0.75700
O1255       O  0.66980026  0.56410594  0.37130456    -0.57800
O1256       O  0.58576493  0.62709291  0.34416732    -0.47900
O1257       O  0.64174515  0.56892035  0.31430353    -0.54200
C1258       C  0.58572954  0.55416468  0.41168611     0.85800
O1259       O  0.61454630  0.62860257  0.42875937    -0.56100
O1260       O  0.63395527  0.63072838  0.31998099    -0.59400
N1261       N  0.74727425  0.97155333  0.19549983    -0.35900
N1262       N  0.69670923  0.00226022  0.24712492    -0.56500
N1263       N  0.75063903  0.52714224  0.30293873    -0.35900
N1264       N  0.80174785  0.49436725  0.25360974    -0.56500
C1265       C  0.72086322  0.95332588  0.18576629     0.27700
C1266       C  0.77407169  0.95427496  0.18496860     0.27700
C1267       C  0.72413182  0.54446102  0.31486655     0.27700
C1268       C  0.77734826  0.54424137  0.31492218     0.27700
C1269       C  0.67697781  0.98570722  0.21992970     0.36300
C1270       C  0.68012667  0.51436928  0.27642604     0.36300
C1271       C  0.81767331  0.98895704  0.21645781     0.36300
C1272       C  0.82139530  0.51246627  0.27899834     0.36300
C1273       C  0.73116726  0.92421934  0.16960722    -0.21200
C1274       C  0.76447666  0.92483507  0.16905958    -0.21200
C1275       C  0.73426413  0.57256755  0.33419242    -0.21200
C1276       C  0.76745671  0.57251449  0.33405128    -0.21200
C1277       C  0.64470714  0.99344690  0.22793662    -0.22200
C1278       C  0.64787066  0.50931134  0.26479166    -0.22200
C1279       C  0.84980496  0.99849100  0.22139913    -0.22200
C1280       C  0.85376625  0.50592601  0.26958201    -0.22200
C1281       C  0.68756041  0.96181818  0.19062673    -0.17600
C1282       C  0.80712230  0.96397948  0.18870634    -0.17600
C1283       C  0.81062731  0.53596117  0.30886769    -0.17600
C1284       C  0.69081014  0.53682346  0.30786852    -0.17600
H1285       H  0.71637576  0.90397952  0.16033223     0.15300
H1286       H  0.77980050  0.90522054  0.15913321     0.15300
H1287       H  0.71944757  0.59215219  0.34547394     0.15300
H1288       H  0.78239458  0.59210503  0.34524031     0.15300
H1289       H  0.62309862  0.98463777  0.21183690     0.13600
H1290       H  0.62619226  0.51985096  0.27845332     0.13600
H1291       H  0.87095551  0.99039124  0.20372784     0.13600
H1292       H  0.87538405  0.51601853  0.28421073     0.13600
H1293       H  0.74701523  0.99536033  0.20515046     0.26900
H1294       H  0.75049662  0.50434174  0.29034583     0.26900
In1295     In  0.87397023  0.90488462  0.12672176     1.36900
C1296       C  0.83197413  0.94435188  0.16533300     0.78300
O1297       O  0.86145272  0.87043178  0.17866762    -0.60200
O1298       O  0.91161477  0.87583200  0.16368402    -0.51100
C1299       C  0.86095810  0.85597459  0.07434310     0.70900
O1300       O  0.83850798  0.87109571  0.09339833    -0.45900
C1301       C  0.91443821  0.94531958  0.08675890     0.75700
O1302       O  0.82789988  0.93429475  0.12713720    -0.57800
O1303       O  0.91874279  0.93573245  0.12506609    -0.47900
O1304       O  0.85799886  0.93492080  0.18287502    -0.54200
C1305       C  0.89009681  0.86047667  0.18440743     0.85800
O1306       O  0.88880183  0.86841714  0.07816618    -0.56100
O1307       O  0.88845430  0.93530240  0.06947630    -0.59400
In1308     In  0.87421589  0.59681228  0.37375754     1.36900
C1309       C  0.91421626  0.55622959  0.41435352     0.78300
O1310       O  0.88287027  0.63003838  0.42880226    -0.60200
O1311       O  0.83491269  0.62837236  0.40354121    -0.51100
C1312       C  0.89206466  0.64312334  0.31905847     0.70900
O1313       O  0.91240097  0.62981086  0.34396273    -0.45900
C1314       C  0.83501131  0.55579934  0.33289406     0.75700
O1315       O  0.91932763  0.56625659  0.37636494    -0.57800
O1316       O  0.83073561  0.56431247  0.37167178    -0.47900
O1317       O  0.88804871  0.56630678  0.43068895    -0.54200
C1318       C  0.85462557  0.64177156  0.42922663     0.85800
O1319       O  0.86408843  0.63066648  0.31981110    -0.56100
O1320       O  0.86017629  0.56747541  0.31560950    -0.59400
C1321       C  0.87854592  0.71416808  0.24580751    -0.27500
C1322       C  0.90366962  0.73490023  0.25863244     0.06100
C1323       C  0.92764018  0.72352373  0.28730304     0.25700
C1324       C  0.92519636  0.69264875  0.30473165    -0.12000
C1325       C  0.89887654  0.67260243  0.29379313    -0.25900
C1326       C  0.87625834  0.68335021  0.26277557     0.36500
C1327       C  0.90289267  0.76878371  0.24415126     0.06100
F1328       F  0.95215509  0.74293469  0.30064828    -0.19700
H1329       H  0.94288013  0.68511505  0.32861201     0.15900
F1330       F  0.85116325  0.66446208  0.24985191    -0.23400
H1331       H  0.86009606  0.72221178  0.22326602     0.17700
C1332       C  0.92836011  0.78241006  0.21982026     0.25700
C1333       C  0.92527573  0.81339065  0.20300247    -0.12000
C1334       C  0.89669991  0.83120043  0.20995749    -0.26000
C1335       C  0.87203719  0.81805346  0.23618098     0.36600
C1336       C  0.87513211  0.78723998  0.25283240    -0.27600
F1337       F  0.95520732  0.76505156  0.20990542    -0.19700
H1338       H  0.94442047  0.82268636  0.18244053     0.15900
F1339       F  0.84422864  0.83448784  0.24439324    -0.23500
H1340       H  0.85533808  0.77738390  0.27179878     0.17800
C1341       C  0.86503526  0.71031774  0.50709539    -0.27500
C1342       C  0.84121111  0.73184071  0.49274802     0.06100
C1343       C  0.81883872  0.72178936  0.46103482     0.25700
C1344       C  0.82144176  0.69119162  0.44280871    -0.12000
C1345       C  0.84686179  0.67056464  0.45516652    -0.25900
C1346       C  0.86817578  0.68029773  0.48830617     0.36500
C1347       C  0.85217337  0.76135484  0.02105951     0.06100
F1348       F  0.79708292  0.73090773  0.97887258    -0.19700
H1349       H  0.80505131  0.68454206  0.41688086     0.15900
F1350       F  0.89331471  0.66151932  0.50105680    -0.23400
H1351       H  0.88242414  0.71743315  0.53165115     0.17700
C1352       C  0.82727831  0.77381237  0.04741137     0.25700
C1353       C  0.82914557  0.80536360  0.06252517    -0.12000
C1354       C  0.85619884  0.82475358  0.05254671    -0.26000
C1355       C  0.88100419  0.81211863  0.02627531     0.36600
C1356       C  0.87870508  0.78108991  0.01037848    -0.27600
F1357       F  0.80223804  0.75500973  0.06065337    -0.19700
H1358       H  0.81024432  0.81408554  0.08385622     0.15900
F1359       F  0.90809014  0.82940961  0.01680027    -0.23500
H1360       H  0.89381487  0.76994252  0.49070232     0.17800
C1361       C  0.61851559  0.78220027  0.24913925    -0.27500
C1362       C  0.59047267  0.76420587  0.24004723     0.06100
C1363       C  0.56504856  0.77835576  0.21636211     0.25700
C1364       C  0.56895128  0.80919285  0.19933704    -0.12000
C1365       C  0.59811510  0.82631906  0.20609561    -0.25900
C1366       C  0.62229982  0.81289652  0.23272639     0.36500
C1367       C  0.58957898  0.73033403  0.25385951     0.06100
F1368       F  0.53745745  0.76169924  0.20744533    -0.19700
H1369       H  0.54991425  0.81895916  0.17904250     0.15900
F1370       F  0.65035200  0.82887044  0.24157013    -0.23400
H1371       H  0.63807364  0.77200787  0.26817299     0.17700
C1372       C  0.61503179  0.70990554  0.24151662     0.25700
C1373       C  0.61864814  0.68022017  0.26115103    -0.12000
C1374       C  0.59668718  0.66987554  0.29301268    -0.26000
C1375       C  0.56944556  0.68909703  0.30263774     0.36600
C1376       C  0.56604415  0.71919824  0.28321522    -0.27600
F1377       F  0.63725619  0.71928192  0.21158479    -0.19700
H1378       H  0.63952889  0.66578616  0.25255433     0.15900
F1379       F  0.54739034  0.67986759  0.33282550    -0.23500
H1380       H  0.54612308  0.73450465  0.29293263     0.17800
C1381       C  0.63447296  0.78433933  0.99862479    -0.27500
C1382       C  0.65797551  0.76358717  0.01570924     0.06100
C1383       C  0.68001251  0.77515572  0.04684415     0.25700
C1384       C  0.67722795  0.80651090  0.06216003    -0.12000
C1385       C  0.65217001  0.82649434  0.04712200    -0.25900
C1386       C  0.63156320  0.81545851  0.01400759     0.36500
C1387       C  0.65202791  0.73109976  0.49682093     0.06100
F1388       F  0.70253184  0.75553672  0.06474311    -0.19700
H1389       H  0.69313813  0.81435323  0.08800972     0.15900
F1390       F  0.60767528  0.83432344  0.99771788    -0.23400
H1391       H  0.60145483  0.77162826  0.49013463     0.17700
C1392       C  0.62852197  0.70855428  0.50973949     0.25700
C1393       C  0.62678476  0.67876506  0.48952622    -0.12000
C1394       C  0.64840094  0.67073888  0.45600708    -0.26000
C1395       C  0.67276765  0.69282979  0.44432582     0.36600
C1396       C  0.67463440  0.72261789  0.46480587    -0.27600
F1397       F  0.60371817  0.72343986  0.03189028    -0.19700
H1398       H  0.60768947  0.66234704  0.49908180     0.15900
F1399       F  0.69313553  0.68671843  0.41085351    -0.23500
H1400       H  0.69260839  0.73977634  0.45394908     0.17800
N1401       N  0.50090418  0.52676779  0.95010917    -0.35900
N1402       N  0.94730744  0.99763438  0.49295373    -0.56500
N1403       N  0.99774450  0.96719359  0.54671918    -0.35900
N1404       N  0.55015437  0.99853274  0.50260022    -0.56500
C1405       C  0.97527048  0.54440050  0.93726626     0.27700
C1406       C  0.52787361  0.54398123  0.93971054     0.27700
C1407       C  0.97066810  0.95086779  0.55940412     0.27700
C1408       C  0.52628723  0.94959855  0.56358543     0.27700
C1409       C  0.93072877  0.51410579  0.97490114     0.36300
C1410       C  0.92720591  0.98121414  0.51989084     0.36300
C1411       C  0.57136520  0.51126627  0.97545182     0.36300
C1412       C  0.57003240  0.98228171  0.52987334     0.36300
C1413       C  0.98554493  0.57276654  0.91874551    -0.21200
C1414       C  0.51839684  0.57258866  0.92113778    -0.21200
C1415       C  0.98011592  0.92306349  0.58011935    -0.21200
C1416       C  0.51655941  0.91979024  0.57792808    -0.21200
C1417       C  0.89827288  0.50795587  0.98486969    -0.22200
C1418       C  0.89501795  0.98777064  0.50932843    -0.22200
C1419       C  0.60360350  0.50340376  0.98360522    -0.22200
C1420       C  0.60231851  0.98931334  0.52041470    -0.22200
C1421       C  0.94175334  0.53638691  0.94324664    -0.17600
C1422       C  0.56102611  0.53506917  0.94573180    -0.17600
C1423       C  0.55944538  0.95916969  0.56042306    -0.17600
C1424       C  0.93742051  0.95943934  0.55263050    -0.17600
H1425       H  0.97079688  0.59258571  0.90810277     0.15300
H1426       H  0.53368915  0.59217792  0.91081769     0.15300
H1427       H  0.96473929  0.90413084  0.59232126     0.15300
H1428       H  0.53184118  0.89986570  0.58684049     0.15300
H1429       H  0.87658269  0.51696732  0.96936588     0.13600
H1430       H  0.87315508  0.97885854  0.52465219     0.13600
H1431       H  0.62524553  0.51228293  0.96768749     0.13600
H1432       H  0.62418188  0.98086038  0.53605053     0.13600
H1433       H  0.50065141  0.50346404  0.96172247     0.26900
H1434       H  0.99817259  0.98968112  0.53297552     0.26900
In1435     In  0.62425844  0.90183302  0.63004045     1.36900
C1436       C  0.58381354  0.94067859  0.58673097     0.78300
O1437       O  0.63708963  0.93247788  0.68742095    -0.60200
O1438       O  0.67035654  0.93088481  0.63526672    -0.51100
C1439       C  0.60955586  0.85641019  0.68721848     0.70900
O1440       O  0.58774896  0.87252575  0.66830653    -0.45900
C1441       C  0.63858755  0.85584289  0.57364241     0.75700
O1442       O  0.57731317  0.92954580  0.62373205    -0.57800
O1443       O  0.66069658  0.87174011  0.59242794    -0.47900
O1444       O  0.61183333  0.93325750  0.57332737    -0.54200
C1445       C  0.66448670  0.94104603  0.67293566     0.85800
O1446       O  0.63827562  0.86542536  0.67927932    -0.56100
O1447       O  0.61010963  0.86555784  0.58110178    -0.59400
In1448     In  0.62572927  0.59516384  0.88083220     1.36900
C1449       C  0.66591518  0.55704774  0.83591911     0.78300
O1450       O  0.61157976  0.56514043  0.93863539    -0.60200
O1451       O  0.58164756  0.56320858  0.88301343    -0.51100
C1452       C  0.64333280  0.64013455  0.93747309     0.70900
O1453       O  0.66427765  0.62447186  0.91630806    -0.45900
C1454       C  0.60720725  0.64145283  0.82664335     0.75700
O1455       O  0.67117084  0.56500001  0.87476456    -0.57800
O1456       O  0.58667839  0.62613565  0.84903658    -0.47900
O1457       O  0.63941876  0.56757517  0.82106571    -0.54200
C1458       C  0.58587622  0.55435743  0.92163216     0.85800
O1459       O  0.61440522  0.63079869  0.93194141    -0.56100
O1460       O  0.63598913  0.63126692  0.82992265    -0.59400
N1461       N  0.74900076  0.96829706  0.70370303    -0.35900
N1462       N  0.69860985  0.99993612  0.75535755    -0.56500
N1463       N  0.75008723  0.52988770  0.80248935    -0.35900
N1464       N  0.80003254  0.49930678  0.75063287    -0.56500
C1465       C  0.72219798  0.95049517  0.69427012     0.27700
C1466       C  0.77545056  0.95054240  0.69277673     0.27700
C1467       C  0.72356343  0.54702417  0.81477667     0.27700
C1468       C  0.77695099  0.54672882  0.81499040     0.27700
C1469       C  0.67858830  0.98302242  0.72899157     0.36300
C1470       C  0.67877811  0.51648842  0.77758873     0.36300
C1471       C  0.81980713  0.98376825  0.72453279     0.36300
C1472       C  0.82032870  0.51596395  0.77700054     0.36300
C1473       C  0.73189708  0.92108219  0.67850413    -0.21200
C1474       C  0.76522688  0.92110499  0.67760194    -0.21200
C1475       C  0.73386569  0.57502416  0.83438561    -0.21200
C1476       C  0.76717958  0.57479608  0.83461153    -0.21200
C1477       C  0.64635576  0.99016588  0.73851265    -0.22200
C1478       C  0.64622682  0.51011248  0.76863756    -0.22200
C1479       C  0.85215309  0.99226901  0.73088191    -0.22200
C1480       C  0.85246299  0.50943474  0.76635775    -0.22200
C1481       C  0.68901724  0.95968617  0.69869562    -0.17600
C1482       C  0.80871171  0.95992356  0.69530493    -0.17600
C1483       C  0.81025292  0.53837836  0.80870738    -0.17600
C1484       C  0.69010378  0.53867976  0.80926096    -0.17600
H1485       H  0.71661840  0.90109163  0.66959010     0.15300
H1486       H  0.78015203  0.90113974  0.66789306     0.15300
H1487       H  0.71904339  0.59445910  0.84612145     0.15300
H1488       H  0.78233399  0.59402293  0.84645971     0.15300
H1489       H  0.62443438  0.98113257  0.72349551     0.13600
H1490       H  0.62482781  0.51903830  0.78491321     0.13600
H1491       H  0.87344541  0.98446799  0.71334716     0.13600
H1492       H  0.87447805  0.51841202  0.78123359     0.13600
H1493       H  0.74915409  0.99210014  0.71298766     0.26900
H1494       H  0.74969067  0.50709458  0.78961880     0.26900
In1495     In  0.87350057  0.90265830  0.62570346     1.36900
C1496       C  0.83281852  0.94112961  0.66903050     0.78300
O1497       O  0.86237243  0.86910940  0.67979120    -0.60200
O1498       O  0.91185197  0.87311741  0.66100093    -0.51100
C1499       C  0.85794541  0.85502974  0.57250430     0.70900
O1500       O  0.83621243  0.87314323  0.58798651    -0.45900
C1501       C  0.91261962  0.94167765  0.57938841     0.75700
O1502       O  0.82620858  0.92983548  0.63210589    -0.57800
O1503       O  0.91730140  0.93499930  0.61873015    -0.47900
O1504       O  0.86088019  0.93381205  0.68245021    -0.54200
C1505       C  0.89105826  0.85891492  0.68431058     0.85800
O1506       O  0.88663832  0.86266685  0.58273372    -0.56100
O1507       O  0.88663984  0.92993218  0.56440939    -0.59400
In1508     In  0.87672268  0.59553971  0.87687249     1.36900
C1509       C  0.91728258  0.55563694  0.91805796     0.78300
O1510       O  0.89125533  0.62869949  0.92943135    -0.60200
O1511       O  0.84079331  0.62572981  0.91488366    -0.51100
C1512       C  0.89124313  0.64368109  0.82374636     0.70900
O1513       O  0.91330905  0.62624007  0.83985344    -0.45900
C1514       C  0.83535178  0.55696818  0.83390004     0.75700
O1515       O  0.92237637  0.56546171  0.87993453    -0.57800
O1516       O  0.83124723  0.56508897  0.87286339    -0.47900
O1517       O  0.89062115  0.56507558  0.93372683    -0.54200
C1518       C  0.86308397  0.63949017  0.93626604     0.85800
O1519       O  0.86265336  0.63463233  0.83226290    -0.56100
O1520       O  0.86150128  0.56746514  0.81773529    -0.59400
C1521       C  0.87553181  0.71830475  0.75862410    -0.27500
C1522       C  0.90428487  0.73594418  0.76504836     0.06100
C1523       C  0.93045441  0.72138998  0.78700258     0.25700
C1524       C  0.92698429  0.69043964  0.80395920    -0.12000
C1525       C  0.89742409  0.67361168  0.79939087    -0.25900
C1526       C  0.87198664  0.68772659  0.77562411     0.36500
C1527       C  0.90509301  0.76985789  0.75053467     0.06100
F1528       F  0.95858647  0.73763375  0.79423905    -0.19700
H1529       H  0.94681389  0.68029776  0.82250854     0.15900
F1530       F  0.84311146  0.67239631  0.76984115    -0.23400
H1531       H  0.85524142  0.72864552  0.74115398     0.17700
C1532       C  0.92965741  0.78183392  0.72313642     0.25700
C1533       C  0.92644341  0.81219332  0.70432748    -0.12000
C1534       C  0.89845274  0.83078271  0.71184997    -0.26000
C1535       C  0.87499168  0.81945606  0.74130799     0.36600
C1536       C  0.87855930  0.78962494  0.76065125    -0.27600
F1537       F  0.95530599  0.76329096  0.71170225    -0.19700
H1538       H  0.94471541  0.82015188  0.68148246     0.15900
F1539       F  0.84750528  0.83635263  0.74962658    -0.23500
H1540       H  0.85952413  0.78119141  0.78207579     0.17800
C1541       C  0.88081623  0.70973490  0.00909890    -0.27500
C1542       C  0.85208954  0.72771130  0.00550215     0.06100
C1543       C  0.82525267  0.71432746  0.98344607     0.25700
C1544       C  0.82811617  0.68450232  0.96317882    -0.12000
C1545       C  0.85771757  0.66761574  0.96445588    -0.25900
C1546       C  0.88377736  0.68024764  0.98873952     0.36500
C1547       C  0.84293404  0.76541930  0.50801653     0.06100
F1548       F  0.79631282  0.74234978  0.44518609    -0.19700
H1549       H  0.80775027  0.67545886  0.94451975     0.15900
F1550       F  0.91284723  0.66491103  0.99119708    -0.23400
H1551       H  0.90165301  0.71919182  0.02644847     0.17700
C1552       C  0.81623788  0.78111863  0.52712134     0.25700
C1553       C  0.82048701  0.81129989  0.54616204    -0.12000
C1554       C  0.85134318  0.82611919  0.54630171    -0.26000
C1555       C  0.87733687  0.81106533  0.52479957     0.36600
C1556       C  0.87306925  0.78123912  0.50597377    -0.27600
F1557       F  0.78669864  0.76657975  0.52965334    -0.19700
H1558       H  0.80010721  0.82232969  0.56256676     0.15900
F1559       F  0.90740422  0.82465014  0.52311053    -0.23500
H1560       H  0.89819597  0.77220315  0.99011141     0.17800
C1561       C  0.62302061  0.78465478  0.75898897    -0.27500
C1562       C  0.59525146  0.76607746  0.75003187     0.06100
C1563       C  0.57011109  0.77947450  0.72499271     0.25700
C1564       C  0.57384313  0.81003354  0.70706701    -0.12000
C1565       C  0.60272224  0.82759659  0.71355976    -0.25900
C1566       C  0.62691132  0.81490843  0.74083700     0.36500
C1567       C  0.59459602  0.73212452  0.76421384     0.06100
F1568       F  0.54301426  0.76226213  0.71537971    -0.19700
H1569       H  0.55497352  0.81912585  0.68593350     0.15900
F1570       F  0.65496766  0.83117226  0.74869020    -0.23400
H1571       H  0.64243428  0.77511823  0.77888184     0.17700
C1572       C  0.62098832  0.71219288  0.75395215     0.25700
C1573       C  0.62353630  0.68192784  0.77222983    -0.12000
C1574       C  0.59971120  0.67043780  0.80086399    -0.26000
C1575       C  0.57174878  0.68919222  0.80833638     0.36600
C1576       C  0.56932687  0.71988483  0.79018695    -0.27600
F1577       F  0.64492186  0.72239276  0.72698056    -0.19700
H1578       H  0.64502272  0.66788436  0.76519088     0.15900
F1579       F  0.54783352  0.67880894  0.83519110    -0.23500
H1580       H  0.54853781  0.73463758  0.79811413     0.17800
C1581       C  0.62186465  0.78193573  0.50748607    -0.27500
C1582       C  0.65059174  0.76435919  0.51331085     0.06100
C1583       C  0.67714421  0.77881400  0.53459609     0.25700
C1584       C  0.67399008  0.80954416  0.55216947    -0.12000
C1585       C  0.64452918  0.82646363  0.54812431    -0.25900
C1586       C  0.61890487  0.81268880  0.52417644     0.36500
C1587       C  0.65742469  0.72963149  0.00231380     0.06100
F1588       F  0.70551633  0.76271164  0.54009509    -0.19700
H1589       H  0.69407534  0.81951810  0.57048843     0.15900
F1590       F  0.59055852  0.82864903  0.51764287    -0.23400
H1591       H  0.61755899  0.77599743  0.97420189     0.17700
C1592       C  0.62910741  0.71139121  0.00903112     0.25700
C1593       C  0.62600701  0.68122327  0.99052156    -0.12000
C1594       C  0.65075876  0.66867237  0.96418624    -0.26000
C1595       C  0.67991305  0.68621979  0.95925417     0.36600
C1596       C  0.68326113  0.71636369  0.97860642    -0.27600
F1597       F  0.60660591  0.71572924  0.54111445    -0.19700
H1598       H  0.60333305  0.66834002  0.99499706     0.15900
F1599       F  0.70404291  0.67551768  0.93306754    -0.23500
H1600       H  0.70516919  0.73018294  0.97280434     0.17800
loop_ 
_geom_bond_atom_site_label_1 
_geom_bond_atom_site_label_2 
_geom_bond_distance 
_geom_bond_site_symmetry_2 
_ccdc_geom_bond_type 
N1            C6   1.360   1_655  A
N1          C805   1.360       .  A
N1           H33   1.048       .  S
N2           C10   1.359   1_556  A
N2          C609   1.361       .  A
N3            C7   1.360       .  A
N3          C808   1.363       .  A
N3           H34   1.033       .  S
N4           C12   1.356       .  A
N4          C611   1.357   1_554  A
C5          N801   1.360       .  A
C5           C13   1.387       .  A
C5           C21   1.422       .  A
C6           C22   1.421       .  A
C6           C14   1.387       .  A
C7           C15   1.389       .  A
C7           C24   1.425       .  A
C8          N803   1.359       .  A
C8           C23   1.419       .  A
C8           C16   1.387       .  A
C9          N602   1.359   1_545  A
C9           C21   1.427       .  A
C9           C17   1.387       .  A
C10          C24   1.429       .  A
C10          C18   1.388       .  A
C11         N604   1.359   1_545  A
C11          C19   1.386       .  A
C11          C22   1.425       .  A
C12          C20   1.385       .  A
C12          C23   1.420       .  A
C13         C814   1.364       .  A
C13          H25   1.082       .  S
C14         C813   1.363   1_455  A
C14          H26   1.082       .  S
C15         C816   1.365       .  A
C15          H27   1.082       .  S
C16         C815   1.364   1_455  A
C16          H28   1.082       .  S
C17         C618   1.373   1_545  A
C17          H29   1.079       .  S
C18         C617   1.373   1_554  A
C18          H30   1.079       .  S
C19         C620   1.371   1_545  A
C19          H31   1.080       .  S
C20         C619   1.368   1_554  A
C20          H32   1.080       .  S
C21         C109   1.509       .  S
C22          C58   1.504       .  S
C23          C36   1.497       .  S
C24         C101   1.503       .  S
In35         O37   2.267       .  S
In35         O38   2.261       .  S
In35         O46   2.221       .  S
In35         O40   2.266       .  S
In35         O42   2.244       .  S
In35         O43   2.279       .  S
In35         O44   2.249       .  S
In35         O47   2.241       .  S
C36          O42   1.264       .  A
C36          O44   1.262       .  A
O37          C45   1.261       .  A
O38          C45   1.266       .  A
C39         C165   1.478       .  S
C39          O46   1.259       .  A
C39          O40   1.264       .  A
C41         C185   1.485       .  S
C41          O43   1.265       .  A
C41          O47   1.259       .  A
C45          C81   1.506       .  S
In48         O50   2.257       .  S
In48         O51   2.256       .  S
In48         O59   2.241       .  S
In48         O53   2.280       .  S
In48         O55   2.255       .  S
In48         O56   2.272       .  S
In48         O57   2.250       .  S
In48         O60   2.245       .  S
C49          C84   1.500       .  S
C49          O55   1.266       .  A
C49          O57   1.260       .  A
O50          C58   1.261       .  A
O51          C58   1.267       .  A
C52         C194   1.488       .  S
C52          O59   1.259       .  A
C52          O53   1.264       .  A
C54         C174   1.486       .  S
C54          O56   1.264       .  A
C54          O60   1.259       .  A
N61          C66   1.358       .  A
N61          C65   1.359       .  A
N61          H93   1.044       .  S
N62          C69   1.360       .  A
N62         C470   1.358       .  A
N63          C68   1.359       .  A
N63          C67   1.359       .  A
N63          H94   1.037       .  S
N64          C72   1.360   1_565  A
N64         C471   1.358       .  A
C65          C73   1.387       .  A
C65          C81   1.419       .  A
C66          C82   1.421       .  A
C66          C74   1.388       .  A
C67          C75   1.389       .  A
C67          C84   1.419       .  A
C68          C83   1.419       .  A
C68          C76   1.388       .  A
C69          C81   1.424       .  A
C69          C77   1.384       .  A
C70         N462   1.359   1_545  A
C70          C84   1.425       .  A
C70          C78   1.385       .  A
C71         N464   1.359       .  A
C71          C79   1.385       .  A
C71          C82   1.425       .  A
C72          C80   1.386       .  A
C72          C83   1.425       .  A
C73          C74   1.365       .  A
C73          H85   1.082       .  S
C74          H86   1.082       .  S
C75          C76   1.363       .  A
C75          H87   1.082       .  S
C76          H88   1.082       .  S
C77         C478   1.371       .  A
C77          H89   1.080       .  S
C78         C477   1.370   1_545  A
C78          H90   1.080       .  S
C79         C480   1.373       .  A
C79          H91   1.081       .  S
C80         C479   1.371   1_545  A
C80          H92   1.079       .  S
C82          C96   1.504       .  S
C83         C114   1.503       .  S
In95         O97   2.245       .  S
In95         O98   2.271       .  S
In95        O106   2.211       .  S
In95        O100   2.273       .  S
In95        O102   2.254       .  S
In95        O103   2.251       .  S
In95        O104   2.264       .  S
In95        O107   2.257       .  S
C96         O102   1.266       .  A
C96         O104   1.262       .  A
O97         C105   1.260       .  A
O98         C105   1.264       .  A
C99         C154   1.481       .  S
C99         O106   1.258       .  A
C99         O100   1.267       .  A
C101        O103   1.266       .  A
C101        O107   1.261       .  A
C105        C134   1.486       .  S
In108       O110   2.258       .  S
In108       O111   2.254       .  S
In108       O119   2.256       .  S
In108       O113   2.258       .  S
In108       O115   2.265       .  S
In108       O116   2.250       .  S
In108       O117   2.275       .  S
In108       O120   2.262       .  S
C109        O115   1.265       .  A
C109        O117   1.260       .  A
O110        C118   1.261       .  A
O111        C118   1.259       .  A
C112        C125   1.482       .  S
C112        O119   1.260       .  A
C112        O113   1.262       .  A
C114        O116   1.264       .  A
C114        O120   1.259       .  A
C118        C145   1.482       .  S
C121        C122   1.405       .  A
C121        C126   1.404       .  A
C121        H131   1.083       .  S
C122        C123   1.405       .  A
C122        C127   1.485       .  S
C123        C124   1.400       .  A
C123        F128   1.357       .  S
C124        C125   1.406       .  A
C124        H129   1.083       .  S
C125        C126   1.408       .  A
C126        F130   1.357       .  S
C127        C132   1.406       .  A
C127        C136   1.403       .  A
C132        C133   1.405       .  A
C132        F137   1.357       .  S
C133        C134   1.408       .  A
C133        H138   1.083       .  S
C134        C135   1.408       .  A
C135        C136   1.399       .  A
C135        F139   1.357       .  S
C136        H140   1.084       .  S
C141        C142   1.406       .  A
C141        C146   1.400       .  A
C141        H151   1.083       .  S
C142        C143   1.407       .  A
C142        C347   1.489       .  S
C143        C144   1.402       .  A
C143        F348   1.358       .  S
C144        C145   1.408       .  A
C144        H149   1.083       .  S
C145        C146   1.405       .  A
C146        F150   1.357       .  S
C147        C152   1.409       .  A
C147        C156   1.405       .  A
C147        C342   1.491   1_554  S
F148        C343   1.357       .  S
C152        C153   1.406       .  A
C152        F157   1.357       .  S
C153        C154   1.406       .  A
C153        H158   1.083       .  S
C154        C155   1.407       .  A
C155        C156   1.393       .  A
C155        F159   1.358       .  S
C156        H360   1.084   1_554  S
H160        C356   1.083       .  S
C161        C162   1.403       .  A
C161        C166   1.394       .  A
C161        H171   1.084       .  S
C162        C163   1.405       .  A
C162        C167   1.481       .  S
C163        C164   1.404       .  A
C163        F168   1.357       .  S
C164        C165   1.407       .  A
C164        H169   1.083       .  S
C165        C166   1.406       .  A
C166        F170   1.358       .  S
C167        C172   1.405       .  A
C167        C176   1.402       .  A
C172        C173   1.398       .  A
C172        F177   1.359       .  S
C173        C174   1.406       .  A
C173        H178   1.083       .  S
C174        C175   1.410       .  A
C175        C176   1.403       .  A
C175        F179   1.356       .  S
C176        H180   1.083       .  S
C181        C182   1.403   1_556  A
C181        C186   1.397   1_556  A
C181        H391   1.084       .  S
C182        C183   1.406       .  A
C182        C387   1.484   1_554  S
C183        C184   1.405       .  A
C183        F188   1.357       .  S
C184        C185   1.408       .  A
C184        H189   1.083       .  S
C185        C186   1.408       .  A
C186        F190   1.357       .  S
C187        C192   1.405       .  A
C187        C196   1.404       .  A
C187        C382   1.486       .  S
H191        C381   1.084       .  S
C192        C193   1.398       .  A
C192        F397   1.358       .  S
C193        C194   1.406       .  A
C193        H198   1.083       .  S
C194        C195   1.411       .  A
C195        C196   1.406       .  A
C195        F199   1.357       .  S
C196        H200   1.083       .  S
F197        C392   1.358       .  S
N201        C206   1.358       .  A
N201       C1005   1.361   1_455  A
N201        H233   1.048       .  S
N202        C409   1.358       .  A
N202        C210   1.358       .  A
N203       C1008   1.359       .  A
N203        C207   1.360       .  A
N203        H234   1.040       .  S
N204        C411   1.358       .  A
N204        C212   1.358       .  A
C205       N1001   1.360       .  A
C205        C213   1.387       .  A
C205        C221   1.425       .  A
C206        C222   1.425       .  A
C206        C214   1.389       .  A
C207        C215   1.388       .  A
C207        C224   1.421       .  A
C208       N1003   1.362   1_455  A
C208        C223   1.423       .  A
C208        C216   1.388       .  A
C209        N402   1.356   1_546  A
C209        C221   1.426       .  A
C209        C217   1.389       .  A
C210        C224   1.423       .  A
C210        C218   1.386       .  A
C211        N404   1.357   1_546  A
C211        C219   1.387       .  A
C211        C222   1.425       .  A
C212        C220   1.388       .  A
C212        C223   1.427       .  A
C213       C1014   1.363       .  A
C213        H225   1.082       .  S
C214       C1013   1.365   1_455  A
C214        H226   1.081       .  S
C215       C1016   1.366       .  A
C215        H227   1.082       .  S
C216       C1015   1.363   1_455  A
C216        H228   1.082       .  S
C217        C418   1.374   1_546  A
C217        H229   1.079       .  S
C218        C417   1.370       .  A
C218        H230   1.080       .  S
C219        C420   1.371   1_546  A
C219        H231   1.080       .  S
C220        C419   1.370       .  A
C220        H232   1.080       .  S
C221        C309   1.505       .  S
C222        C258   1.499       .  S
C223        C236   1.506       .  S
C224        C301   1.502       .  S
In235       O237   2.261       .  S
In235       O238   2.258       .  S
In235       O246   2.233       .  S
In235       O240   2.280       .  S
In235       O242   2.266       .  S
In235       O243   2.267       .  S
In235       O244   2.253       .  S
In235       O247   2.229       .  S
C236        O242   1.268       .  A
C236        O244   1.260       .  A
O237        C245   1.262       .  A
O238        C245   1.265       .  A
C239        C365   1.489       .  S
C239        O246   1.260       .  A
C239        O240   1.267       .  A
C241        C385   1.484       .  S
C241        O243   1.265       .  A
C241        O247   1.260       .  A
C245        C281   1.502       .  S
In248       O250   2.259       .  S
In248       O251   2.251       .  S
In248       O259   2.207       .  S
In248       O253   2.276       .  S
In248       O255   2.256       .  S
In248       O256   2.286       .  S
In248       O257   2.247       .  S
In248       O260   2.226       .  S
C249        C284   1.501       .  S
C249        O255   1.266       .  A
C249        O257   1.260       .  A
O250        C258   1.260       .  A
O251        C258   1.266       .  A
C252        C394   1.481       .  S
C252        O259   1.259       .  A
C252        O253   1.267       .  A
C254        C374   1.486       .  S
C254        O256   1.265       .  A
C254        O260   1.259       .  A
N261        C266   1.362       .  A
N261        C265   1.361       .  A
N261        H293   1.038       .  S
N262        C269   1.357       .  A
N262        C670   1.359       .  A
N263        C268   1.363       .  A
N263        C267   1.360       .  A
N263        H294   1.034       .  S
N264        C671   1.359       .  A
N264        C272   1.360   1_565  A
C265        C273   1.387       .  A
C265        C281   1.423       .  A
C266        C282   1.425       .  A
C266        C274   1.388       .  A
C267        C275   1.388       .  A
C267        C284   1.423       .  A
C268        C283   1.426       .  A
C268        C276   1.388       .  A
C269        C281   1.422       .  A
C269        C277   1.385       .  A
C270        N662   1.357   1_545  A
C270        C284   1.425       .  A
C270        C278   1.388       .  A
C271        N664   1.360       .  A
C271        C279   1.387       .  A
C271        C282   1.427       .  A
C272        C280   1.387       .  A
C272        C283   1.429       .  A
C273        C274   1.365       .  A
C273        H285   1.082       .  S
C274        H286   1.081       .  S
C275        C276   1.366       .  A
C275        H287   1.082       .  S
C276        H288   1.082       .  S
C277        C678   1.371       .  A
C277        H289   1.081       .  S
C278        C677   1.370   1_545  A
C278        H290   1.079       .  S
C279        C680   1.371       .  A
C279        H291   1.079       .  S
C280        C679   1.373   1_545  A
C280        H292   1.079       .  S
C282        C296   1.510       .  S
C283        C314   1.511       .  S
In295       O297   2.243       .  S
In295       O298   2.279       .  S
In295       O306   2.242       .  S
In295       O300   2.271       .  S
In295       O302   2.265       .  S
In295       O303   2.252       .  S
In295       O304   2.261       .  S
In295       O307   2.260       .  S
C296        O302   1.266       .  A
C296        O304   1.260       .  A
O297        C305   1.258       .  A
O298        C305   1.263       .  A
C299        C354   1.483       .  S
C299        O306   1.258       .  A
C299        O300   1.263       .  A
C301        O303   1.266       .  A
C301        O307   1.262       .  A
C305        C334   1.488       .  S
In308       O310   2.220       .  S
In308       O311   2.272       .  S
In308       O319   2.222       .  S
In308       O313   2.291       .  S
In308       O315   2.256       .  S
In308       O316   2.261       .  S
In308       O317   2.267       .  S
In308       O320   2.273       .  S
C309        O315   1.267       .  A
C309        O317   1.260       .  A
O310        C318   1.259       .  A
O311        C318   1.266       .  A
C312        C325   1.487       .  S
C312        O319   1.259       .  A
C312        O313   1.267       .  A
C314        O316   1.266       .  A
C314        O320   1.262       .  A
C318        C345   1.483       .  S
C321        C322   1.402       .  A
C321        C326   1.395       .  A
C321        H331   1.084       .  S
C322        C323   1.409       .  A
C322        C327   1.489       .  S
C323        C324   1.411       .  A
C323        F328   1.357       .  S
C324        C325   1.410       .  A
C324        H329   1.083       .  S
C325        C326   1.407       .  A
C326        F330   1.358       .  S
C327        C332   1.407       .  A
C327        C336   1.404       .  A
C332        C333   1.407       .  A
C332        F337   1.357       .  S
C333        C334   1.409       .  A
C333        H338   1.083       .  S
C334        C335   1.408       .  A
C335        C336   1.398       .  A
C335        F339   1.358       .  S
C336        H340   1.084       .  S
C341        C342   1.404       .  A
C341        C346   1.392       .  A
C341        H351   1.083   1_556  S
C342        C343   1.410       .  A
C343        C344   1.407       .  A
C344        C345   1.408       .  A
C344        H349   1.083       .  S
C345        C346   1.406       .  A
C346        F350   1.358       .  S
C347        C352   1.406       .  A
C347        C356   1.406       .  A
C352        C353   1.401       .  A
C352        F357   1.357       .  S
C353        C354   1.405       .  A
C353        H358   1.083       .  S
C354        C355   1.409       .  A
C355        C356   1.402       .  A
C355        F359   1.358       .  S
C361        C362   1.405       .  A
C361        C366   1.398       .  A
C361        H371   1.084       .  S
C362        C363   1.408       .  A
C362        C367   1.493       .  S
C363        C364   1.408       .  A
C363        F368   1.357       .  S
C364        C365   1.408       .  A
C364        H369   1.083       .  S
C365        C366   1.409       .  A
C366        F370   1.358       .  S
C367        C372   1.407       .  A
C367        C376   1.408       .  A
C372        C373   1.397       .  A
C372        F377   1.358       .  S
C373        C374   1.404       .  A
C373        H378   1.083       .  S
C374        C375   1.410       .  A
C375        C376   1.409       .  A
C375        F379   1.357       .  S
C376        H380   1.083       .  S
C381        C382   1.403       .  A
C381        C386   1.397       .  A
C382        C383   1.406       .  A
C383        C384   1.405       .  A
C383        F388   1.357       .  S
C384        C385   1.408       .  A
C384        H389   1.083       .  S
C385        C386   1.408       .  A
C386        F390   1.358       .  S
C387        C392   1.405   1_556  A
C387        C396   1.406       .  A
C392        C393   1.393   1_554  A
C393        C394   1.405       .  A
C393        H398   1.083       .  S
C394        C395   1.410       .  A
C395        C396   1.406       .  A
C395        F399   1.357       .  S
C396        H400   1.083       .  S
N401        C406   1.359   1_655  A
N401       C1205   1.359       .  A
N401        H433   1.048       .  S
N402        C410   1.357       .  A
N403       C1208   1.358       .  A
N403        C407   1.358       .  A
N403        H434   1.037       .  S
N404        C412   1.358       .  A
C405       N1201   1.361       .  A
C405        C413   1.387       .  A
C405        C421   1.423       .  A
C406        C422   1.420       .  A
C406        C414   1.386       .  A
C407        C415   1.387       .  A
C407        C424   1.417       .  A
C408       N1203   1.359   1_455  A
C408        C423   1.418       .  A
C408        C416   1.386       .  A
C409        C421   1.425       .  A
C409        C417   1.387       .  A
C410        C424   1.421       .  A
C410        C418   1.385       .  A
C411        C419   1.385       .  A
C411        C422   1.423       .  A
C412        C420   1.385       .  A
C412        C423   1.422       .  A
C413       C1214   1.363       .  A
C413        H425   1.081       .  S
C414       C1213   1.362   1_455  A
C414        H426   1.082       .  S
C415       C1216   1.367       .  A
C415        H427   1.083       .  S
C416       C1215   1.366   1_455  A
C416        H428   1.082       .  S
C417        H429   1.080       .  S
C418        H430   1.081       .  S
C419        H431   1.080       .  S
C420        H432   1.080       .  S
C421        C509   1.506       .  S
C422        C458   1.502       .  S
C423        C436   1.502       .  S
C424        C501   1.500       .  S
In435       O437   2.258       .  S
In435       O438   2.268       .  S
In435       O446   2.227       .  S
In435       O440   2.279       .  S
In435       O442   2.259       .  S
In435       O443   2.262       .  S
In435       O444   2.251       .  S
In435       O447   2.241       .  S
C436        O442   1.266       .  A
C436        O444   1.261       .  A
O437        C445   1.261       .  A
O438        C445   1.266       .  A
C439        C565   1.481       .  S
C439        O446   1.257       .  A
C439        O440   1.263       .  A
C441        C585   1.482       .  S
C441        O443   1.262       .  A
C441        O447   1.258       .  A
C445        C481   1.510       .  S
In448       O450   2.256       .  S
In448       O451   2.251       .  S
In448       O459   2.233       .  S
In448       O453   2.270       .  S
In448       O455   2.261       .  S
In448       O456   2.278       .  S
In448       O457   2.247       .  S
In448       O460   2.222       .  S
C449        C484   1.503       .  S
C449        O455   1.267       .  A
C449        O457   1.260       .  A
O450        C458   1.261       .  A
O451        C458   1.266       .  A
C452        C594   1.481       .  S
C452        O459   1.258       .  A
C452        O453   1.263       .  A
C454        C574   1.483       .  S
C454        O456   1.264       .  A
C454        O460   1.257       .  A
N461        C466   1.361       .  A
N461        C465   1.362       .  A
N461        H493   1.043       .  S
N462        C469   1.359       .  A
N463        C468   1.363       .  A
N463        C467   1.360       .  A
N463        H494   1.037       .  S
N464        C472   1.359       .  A
C465        C473   1.387       .  A
C465        C481   1.426       .  A
C466        C482   1.426       .  A
C466        C474   1.388       .  A
C467        C475   1.389       .  A
C467        C484   1.427       .  A
C468        C483   1.426       .  A
C468        C476   1.388       .  A
C469        C481   1.428       .  A
C469        C477   1.388       .  A
C470        C484   1.429       .  A
C470        C478   1.389       .  A
C471        C479   1.387       .  A
C471        C482   1.427       .  A
C472        C480   1.388       .  A
C472        C483   1.428       .  A
C473        C474   1.368       .  A
C473        H485   1.082       .  S
C474        H486   1.082       .  S
C475        C476   1.366       .  A
C475        H487   1.082       .  S
C476        H488   1.082       .  S
C477        H489   1.079       .  S
C478        H490   1.079       .  S
C479        H491   1.080       .  S
C480        H492   1.079       .  S
C482        C496   1.506       .  S
C483        C514   1.509       .  S
In495       O497   2.211       .  S
In495       O498   2.275       .  S
In495       O506   2.233       .  S
In495       O500   2.284       .  S
In495       O502   2.265       .  S
In495       O503   2.253       .  S
In495       O504   2.260       .  S
In495       O507   2.263       .  S
C496        O502   1.266       .  A
C496        O504   1.260       .  A
O497        C505   1.259       .  A
O498        C505   1.266       .  A
C499        C554   1.490       .  S
C499        O506   1.259       .  A
C499        O500   1.265       .  A
C501        O503   1.265       .  A
C501        O507   1.262       .  A
C505        C534   1.480       .  S
In508       O510   2.250       .  S
In508       O511   2.274       .  S
In508       O519   2.223       .  S
In508       O513   2.284       .  S
In508       O515   2.261       .  S
In508       O516   2.265       .  S
In508       O517   2.265       .  S
In508       O520   2.266       .  S
C509        O515   1.265       .  A
C509        O517   1.261       .  A
O510        C518   1.258       .  A
O511        C518   1.261       .  A
C512        C525   1.485       .  S
C512        O519   1.257       .  A
C512        O513   1.263       .  A
C514        O516   1.266       .  A
C514        O520   1.261       .  A
C518        C545   1.482       .  S
C521        C522   1.403       .  A
C521        C526   1.392       .  A
C521        H531   1.084       .  S
C522        C523   1.407       .  A
C522        C527   1.485       .  S
C523        C524   1.407       .  A
C523        F528   1.357       .  S
C524        C525   1.409       .  A
C524        H529   1.083       .  S
C525        C526   1.408       .  A
C526        F530   1.358       .  S
C527        C532   1.408       .  A
C527        C536   1.403       .  A
C532        C533   1.407       .  A
C532        F537   1.356       .  S
C533        C534   1.408       .  A
C533        H538   1.083       .  S
C534        C535   1.406       .  A
C535        C536   1.391       .  A
C535        F539   1.358       .  S
C536        H540   1.084       .  S
C541        C542   1.404       .  A
C541        C546   1.399       .  A
C541        H551   1.083       .  S
C542        C543   1.406       .  A
C542        C747   1.484       .  S
C543        C544   1.404       .  A
C543        F748   1.358       .  S
C544        C545   1.407       .  A
C544        H549   1.083       .  S
C545        C546   1.406       .  A
C546        F550   1.357       .  S
C547        C552   1.408       .  A
C547        C556   1.404       .  A
C547        C742   1.491   1_554  S
F548        C743   1.357       .  S
C552        C553   1.408       .  A
C552        F557   1.357       .  S
C553        C554   1.409       .  A
C553        H558   1.083       .  S
C554        C555   1.409       .  A
C555        C556   1.396       .  A
C555        F559   1.358       .  S
C556        H760   1.084   1_554  S
H560        C756   1.083       .  S
C561        C562   1.402       .  A
C561        C566   1.396       .  A
C561        H571   1.084       .  S
C562        C563   1.405       .  A
C562        C567   1.480       .  S
C563        C564   1.404       .  A
C563        F568   1.357       .  S
C564        C565   1.407       .  A
C564        H569   1.083       .  S
C565        C566   1.408       .  A
C566        F570   1.358       .  S
C567        C572   1.404       .  A
C567        C576   1.404       .  A
C572        C573   1.394       .  A
C572        F577   1.358       .  S
C573        C574   1.406       .  A
C573        H578   1.083       .  S
C574        C575   1.410       .  A
C575        C576   1.405       .  A
C575        F579   1.357       .  S
C576        H580   1.083       .  S
C581        C582   1.404       .  A
C581        C586   1.396       .  A
C581        H791   1.084   1_554  S
C582        C583   1.404       .  A
C582        C787   1.482       .  S
C583        C584   1.403       .  A
C583        F588   1.357       .  S
C584        C585   1.408       .  A
C584        H589   1.083       .  S
C585        C586   1.408       .  A
C586        F590   1.358       .  S
C587        C592   1.404       .  A
C587        C596   1.403       .  A
C587        C782   1.478       .  S
H591        C781   1.084       .  S
C592        C593   1.395       .  A
C592        F797   1.358       .  S
C593        C594   1.405       .  A
C593        H598   1.083       .  S
C594        C595   1.409       .  A
C595        C596   1.403       .  A
C595        F599   1.357       .  S
C596        H600   1.083       .  S
F597        C792   1.358       .  S
N601        C606   1.362       .  A
N601       C1405   1.361   1_455  A
N601        H633   1.049       .  S
N602        C610   1.358       .  A
N603       C1408   1.360       .  A
N603        C607   1.359       .  A
N603        H634   1.041       .  S
N604        C612   1.359       .  A
C605       N1401   1.361       .  A
C605        C613   1.387       .  A
C605        C621   1.422       .  A
C606        C622   1.425       .  A
C606        C614   1.387       .  A
C607        C615   1.388       .  A
C607        C624   1.421       .  A
C608       N1403   1.363   1_455  A
C608        C623   1.425       .  A
C608        C616   1.387       .  A
C609        C621   1.428       .  A
C609        C617   1.385       .  A
C610        C624   1.425       .  A
C610        C618   1.386       .  A
C611        C619   1.388       .  A
C611        C622   1.424       .  A
C612        C620   1.387       .  A
C612        C623   1.428       .  A
C613       C1414   1.364       .  A
C613        H625   1.081       .  S
C614       C1413   1.363   1_455  A
C614        H626   1.081       .  S
C615       C1416   1.366       .  A
C615        H627   1.082       .  S
C616       C1415   1.365   1_455  A
C616        H628   1.082       .  S
C617        H629   1.080       .  S
C618        H630   1.080       .  S
C619        H631   1.079       .  S
C620        H632   1.080       .  S
C621        C709   1.512       .  S
C622        C658   1.507       .  S
C623        C636   1.510       .  S
C624        C701   1.503       .  S
In635       O637   2.261       .  S
In635       O638   2.266       .  S
In635       O646   2.229       .  S
In635       O640   2.274       .  S
In635       O642   2.270       .  S
In635       O643   2.261       .  S
In635       O644   2.261       .  S
In635       O647   2.222       .  S
C636        O642   1.266       .  A
C636        O644   1.260       .  A
O637        C645   1.262       .  A
O638        C645   1.265       .  A
C639        C765   1.483       .  S
C639        O646   1.259       .  A
C639        O640   1.266       .  A
C641        C785   1.476       .  S
C641        O643   1.266       .  A
C641        O647   1.260       .  A
C645        C681   1.507       .  S
In648       O650   2.260       .  S
In648       O651   2.255       .  S
In648       O659   2.230       .  S
In648       O653   2.285       .  S
In648       O655   2.269       .  S
In648       O656   2.283       .  S
In648       O657   2.254       .  S
In648       O660   2.225       .  S
C649        C684   1.507       .  S
C649        O655   1.267       .  A
C649        O657   1.259       .  A
O650        C658   1.261       .  A
O651        C658   1.265       .  A
C652        C794   1.486       .  S
C652        O659   1.259       .  A
C652        O653   1.265       .  A
C654        C774   1.485       .  S
C654        O656   1.264       .  A
C654        O660   1.259       .  A
N661        C666   1.360       .  A
N661        C665   1.362       .  A
N661        H693   1.039       .  S
N662        C669   1.359       .  A
N663        C668   1.361       .  A
N663        C667   1.362       .  A
N663        H694   1.036       .  S
N664        C672   1.358       .  A
C665        C673   1.386       .  A
C665        C681   1.423       .  A
C666        C682   1.424       .  A
C666        C674   1.388       .  A
C667        C675   1.387       .  A
C667        C684   1.422       .  A
C668        C683   1.424       .  A
C668        C676   1.388       .  A
C669        C681   1.424       .  A
C669        C677   1.386       .  A
C670        C684   1.425       .  A
C670        C678   1.388       .  A
C671        C679   1.386       .  A
C671        C682   1.428       .  A
C672        C680   1.387       .  A
C672        C683   1.426       .  A
C673        C674   1.368       .  A
C673        H685   1.082       .  S
C674        H686   1.082       .  S
C675        C676   1.365       .  A
C675        H687   1.082       .  S
C676        H688   1.082       .  S
C677        H689   1.080       .  S
C678        H690   1.079       .  S
C679        H691   1.080       .  S
C680        H692   1.080       .  S
C682        C696   1.507       .  S
C683        C714   1.505       .  S
In695       O697   2.245       .  S
In695       O698   2.282       .  S
In695       O706   2.245       .  S
In695       O700   2.267       .  S
In695       O702   2.266       .  S
In695       O703   2.255       .  S
In695       O704   2.274       .  S
In695       O707   2.270       .  S
C696        O702   1.264       .  A
C696        O704   1.260       .  A
O697        C705   1.260       .  A
O698        C705   1.261       .  A
C699        C754   1.485       .  S
C699        O706   1.260       .  A
C699        O700   1.262       .  A
C701        O703   1.263       .  A
C701        O707   1.259       .  A
C705        C734   1.490       .  S
In708       O710   2.225       .  S
In708       O711   2.273       .  S
In708       O719   2.235       .  S
In708       O713   2.291       .  S
In708       O715   2.265       .  S
In708       O716   2.257       .  S
In708       O717   2.278       .  S
In708       O720   2.264       .  S
C709        O715   1.267       .  A
C709        O717   1.261       .  A
O710        C718   1.260       .  A
O711        C718   1.265       .  A
C712        C725   1.495       .  S
C712        O719   1.260       .  A
C712        O713   1.267       .  A
C714        O716   1.264       .  A
C714        O720   1.261       .  A
C718        C745   1.481       .  S
C721        C722   1.401       .  A
C721        C726   1.396       .  A
C721        H731   1.084       .  S
C722        C723   1.408       .  A
C722        C727   1.488       .  S
C723        C724   1.411       .  A
C723        F728   1.357       .  S
C724        C725   1.411       .  A
C724        H729   1.083       .  S
C725        C726   1.411       .  A
C726        F730   1.357       .  S
C727        C732   1.407       .  A
C727        C736   1.403       .  A
C732        C733   1.409       .  A
C732        F737   1.357       .  S
C733        C734   1.410       .  A
C733        H738   1.083       .  S
C734        C735   1.407       .  A
C735        C736   1.398       .  A
C735        F739   1.357       .  S
C736        H740   1.083       .  S
C741        C742   1.405   1_554  A
C741        C746   1.396   1_554  A
C741        H751   1.083       .  S
C742        C743   1.410       .  A
C743        C744   1.406       .  A
C744        C745   1.407       .  A
C744        H749   1.083       .  S
C745        C746   1.405       .  A
C746        F750   1.358       .  S
C747        C752   1.406       .  A
C747        C756   1.403       .  A
C752        C753   1.402       .  A
C752        F757   1.357       .  S
C753        C754   1.407       .  A
C753        H758   1.083       .  S
C754        C755   1.409       .  A
C755        C756   1.399       .  A
C755        F759   1.357       .  S
C761        C762   1.405       .  A
C761        C766   1.395       .  A
C761        H771   1.084       .  S
C762        C763   1.408       .  A
C762        C767   1.489       .  S
C763        C764   1.406       .  A
C763        F768   1.357       .  S
C764        C765   1.407       .  A
C764        H769   1.083       .  S
C765        C766   1.407       .  A
C766        F770   1.358       .  S
C767        C772   1.406       .  A
C767        C776   1.407       .  A
C772        C773   1.394       .  A
C772        F777   1.358       .  S
C773        C774   1.404       .  A
C773        H778   1.083       .  S
C774        C775   1.410       .  A
C775        C776   1.408       .  A
C775        F779   1.357       .  S
C776        H780   1.083       .  S
C781        C782   1.403       .  A
C781        C786   1.395       .  A
C782        C783   1.404       .  A
C783        C784   1.402       .  A
C783        F788   1.357       .  S
C784        C785   1.406       .  A
C784        H789   1.083       .  S
C785        C786   1.407       .  A
C786        F790   1.358       .  S
C787        C792   1.403       .  A
C787        C796   1.405   1_554  A
C792        C793   1.395   1_554  A
C793        C794   1.406       .  A
C793        H798   1.083       .  S
C794        C795   1.411       .  A
C795        C796   1.406       .  A
C795        F799   1.357       .  S
C796        H800   1.083       .  S
N801        C806   1.358       .  A
N801        H833   1.050       .  S
N802       C1409   1.358   1_554  A
N802        C810   1.360       .  A
N803        C807   1.360   1_455  A
N803        H834   1.040       .  S
N804       C1411   1.357   1_554  A
N804        C812   1.359       .  A
C805        C813   1.387       .  A
C805        C821   1.421       .  A
C806        C822   1.420       .  A
C806        C814   1.387       .  A
C807        C815   1.387       .  A
C807        C824   1.419       .  A
C808        C823   1.425       .  A
C808        C816   1.388       .  A
C809       N1402   1.360   1_545  A
C809        C821   1.427       .  A
C809        C817   1.385       .  A
C810        C824   1.423       .  A
C810        C818   1.384       .  A
C811       N1404   1.356   1_545  A
C811        C819   1.386       .  A
C811        C822   1.422       .  A
C812        C820   1.388       .  A
C812        C823   1.426       .  A
C813        H825   1.082       .  S
C814        H826   1.082       .  S
C815        H827   1.082       .  S
C816        H828   1.082       .  S
C817       C1418   1.376   1_545  A
C817        H829   1.081       .  S
C818       C1417   1.372   1_554  A
C818        H830   1.081       .  S
C819       C1420   1.369   1_545  A
C819        H831   1.080       .  S
C820       C1419   1.372   1_554  A
C820        H832   1.079       .  S
C821        C909   1.508       .  S
C822        C858   1.497       .  S
C823        C836   1.507       .  S
C824        C901   1.505       .  S
In835       O837   2.253       .  S
In835       O838   2.265       .  S
In835       O846   2.236       .  S
In835       O840   2.278       .  S
In835       O842   2.255       .  S
In835       O843   2.259       .  S
In835       O844   2.262       .  S
In835       O847   2.251       .  S
C836        O842   1.265       .  A
C836        O844   1.261       .  A
O837        C845   1.260       .  A
O838        C845   1.265       .  A
C839        C965   1.483       .  S
C839        O846   1.257       .  A
C839        O840   1.262       .  A
C841        C985   1.479       .  S
C841        O843   1.260       .  A
C841        O847   1.258       .  A
C845        C881   1.503       .  S
In848       O850   2.244       .  S
In848       O851   2.250       .  S
In848       O859   2.230       .  S
In848       O853   2.263       .  S
In848       O855   2.254       .  S
In848       O856   2.280       .  S
In848       O857   2.254       .  S
In848       O860   2.211       .  S
C849        C884   1.499       .  S
C849        O855   1.265       .  A
C849        O857   1.260       .  A
O850        C858   1.260       .  A
O851        C858   1.266       .  A
C852        C994   1.477       .  S
C852        O859   1.259       .  A
C852        O853   1.263       .  A
C854        C974   1.482       .  S
C854        O856   1.265       .  A
C854        O860   1.258       .  A
N861        C866   1.361       .  A
N861        C865   1.361       .  A
N861        H893   1.041       .  S
N862        C869   1.357       .  A
N862       C1270   1.358       .  A
N863        C868   1.364       .  A
N863        C867   1.360       .  A
N863        H894   1.037       .  S
N864       C1271   1.358   1_545  A
N864        C872   1.359       .  A
C865        C873   1.388       .  A
C865        C881   1.423       .  A
C866        C882   1.422       .  A
C866        C874   1.387       .  A
C867        C875   1.389       .  A
C867        C884   1.428       .  A
C868        C883   1.430       .  A
C868        C876   1.387       .  A
C869        C881   1.424       .  A
C869        C877   1.387       .  A
C870       N1262   1.356       .  A
C870        C884   1.426       .  A
C870        C878   1.389       .  A
C871       N1264   1.358       .  A
C871        C879   1.387       .  A
C871        C882   1.425       .  A
C872        C880   1.389       .  A
C872        C883   1.429       .  A
C873        C874   1.368       .  A
C873        H885   1.082       .  S
C874        H886   1.082       .  S
C875        C876   1.367       .  A
C875        H887   1.082       .  S
C876        H888   1.081       .  S
C877       C1278   1.371       .  A
C877        H889   1.080       .  S
C878       C1277   1.372   1_545  A
C878        H890   1.080       .  S
C879       C1280   1.373       .  A
C879        H891   1.080       .  S
C880       C1279   1.371   1_545  A
C880        H892   1.079       .  S
C882        C896   1.505       .  S
C883        C914   1.512       .  S
In895       O897   2.264       .  S
In895       O898   2.271       .  S
In895       O906   2.269       .  S
In895       O900   2.253       .  S
In895       O902   2.267       .  S
In895       O903   2.263       .  S
In895       O904   2.277       .  S
In895       O907   2.279       .  S
C896        O902   1.263       .  A
C896        O904   1.259       .  A
O897        C905   1.262       .  A
O898        C905   1.261       .  A
C899        C954   1.489       .  S
C899        O906   1.263       .  A
C899        O900   1.261       .  A
C901        O903   1.263       .  A
C901        O907   1.260       .  A
C905        C934   1.491       .  S
In908       O910   2.244       .  S
In908       O911   2.282       .  S
In908       O919   2.245       .  S
In908       O913   2.302       .  S
In908       O915   2.271       .  S
In908       O916   2.277       .  S
In908       O917   2.280       .  S
In908       O920   2.268       .  S
C909        O915   1.266       .  A
C909        O917   1.260       .  A
O910        C918   1.258       .  A
O911        C918   1.262       .  A
C912        C925   1.493       .  S
C912        O919   1.258       .  A
C912        O913   1.264       .  A
C914        O916   1.265       .  A
C914        O920   1.260       .  A
C918        C945   1.487       .  S
C921        C922   1.404       .  A
C921        C926   1.399       .  A
C921        H931   1.083       .  S
C922        C923   1.411       .  A
C922        C927   1.496       .  S
C923        C924   1.411       .  A
C923        F928   1.357       .  S
C924        C925   1.409       .  A
C924        H929   1.083       .  S
C925        C926   1.408       .  A
C926        F930   1.357       .  S
C927        C932   1.409       .  A
C927        C936   1.406       .  A
C932        C933   1.405       .  A
C932        F937   1.358       .  S
C933        C934   1.408       .  A
C933        H938   1.083       .  S
C934        C935   1.408       .  A
C935        C936   1.404       .  A
C935        F939   1.357       .  S
C936        H940   1.083       .  S
C941        C942   1.400       .  A
C941        C946   1.397       .  A
C941        H951   1.084       .  S
C942        C943   1.404       .  A
C942       C1147   1.477       .  S
C943        C944   1.405       .  A
C943       F1148   1.357       .  S
C944        C945   1.409       .  A
C944        H949   1.083       .  S
C945        C946   1.410       .  A
C946        F950   1.357       .  S
C947        C952   1.407       .  A
C947        C956   1.405       .  A
C947       C1142   1.490       .  S
F948       C1143   1.357       .  S
C952        C953   1.403       .  A
C952        F957   1.358       .  S
C953        C954   1.408       .  A
C953        H958   1.083       .  S
C954        C955   1.408       .  A
C955        C956   1.403       .  A
C955        F959   1.357   1_554  S
C956       H1160   1.083   1_554  S
H960       C1156   1.084       .  S
C961        C962   1.403       .  A
C961        C966   1.396       .  A
C961        H971   1.084       .  S
C962        C963   1.405       .  A
C962        C967   1.482       .  S
C963        C964   1.404       .  A
C963        F968   1.357       .  S
C964        C965   1.407       .  A
C964        H969   1.083       .  S
C965        C966   1.408       .  A
C966        F970   1.358       .  S
C967        C972   1.404       .  A
C967        C976   1.405       .  A
C972        C973   1.392       .  A
C972        F977   1.358       .  S
C973        C974   1.405       .  A
C973        H978   1.083       .  S
C974        C975   1.410       .  A
C975        C976   1.407       .  A
C975        F979   1.357       .  S
C976        H980   1.083       .  S
C981        C982   1.403   1_556  A
C981        C986   1.399   1_556  A
C981       H1191   1.084       .  S
C982        C983   1.402       .  A
C982       C1187   1.475       .  S
C983        C984   1.400       .  A
C983        F988   1.357       .  S
C984        C985   1.406       .  A
C984        H989   1.083       .  S
C985        C986   1.408       .  A
C986        F990   1.358   1_554  S
C987        C992   1.404       .  A
C987        C996   1.403       .  A
C987       C1182   1.476       .  S
H991       C1181   1.084       .  S
C992        C993   1.395       .  A
C992       F1197   1.358       .  S
C993        C994   1.404       .  A
C993        H998   1.083       .  S
C994        C995   1.410       .  A
C995        C996   1.403       .  A
C995        F999   1.357       .  S
C996       H1000   1.083       .  S
F997       C1192   1.358       .  S
N1001      C1006   1.362       .  A
N1001      H1033   1.045       .  S
N1002      C1209   1.358       .  A
N1002      C1010   1.358       .  A
N1003      C1007   1.360       .  A
N1003      H1034   1.037       .  S
N1004      C1211   1.357       .  A
N1004      C1012   1.358       .  A
C1005      C1013   1.387       .  A
C1005      C1021   1.424       .  A
C1006      C1022   1.424       .  A
C1006      C1014   1.387       .  A
C1007      C1015   1.388       .  A
C1007      C1024   1.422       .  A
C1008      C1023   1.421       .  A
C1008      C1016   1.387       .  A
C1009      N1202   1.358   1_556  A
C1009      C1021   1.428       .  A
C1009      C1017   1.389       .  A
C1010      C1024   1.424       .  A
C1010      C1018   1.386       .  A
C1011      N1204   1.354   1_546  A
C1011      C1019   1.388       .  A
C1011      C1022   1.421       .  A
C1012      C1020   1.388       .  A
C1012      C1023   1.425       .  A
C1013      H1025   1.081       .  S
C1014      H1026   1.081       .  S
C1015      H1027   1.082       .  S
C1016      H1028   1.082       .  S
C1017      C1218   1.372   1_546  A
C1017      H1029   1.079       .  S
C1018      C1217   1.371       .  A
C1018      H1030   1.080       .  S
C1019      C1220   1.370   1_546  A
C1019      H1031   1.080       .  S
C1020      C1219   1.372       .  A
C1020      H1032   1.079       .  S
C1021      C1109   1.508       .  S
C1022      C1058   1.499       .  S
C1023      C1036   1.502       .  S
C1024      C1101   1.501       .  S
In1035     O1037   2.279       .  S
In1035     O1038   2.266       .  S
In1035     O1046   2.219       .  S
In1035     O1040   2.285       .  S
In1035     O1042   2.254       .  S
In1035     O1043   2.272       .  S
In1035     O1044   2.254       .  S
In1035     O1047   2.226       .  S
C1036      O1042   1.267       .  A
C1036      O1044   1.261       .  A
O1037      C1045   1.263       .  A
O1038      C1045   1.267       .  A
C1039      C1165   1.486       .  S
C1039      O1046   1.258       .  A
C1039      O1040   1.265       .  A
C1041      C1185   1.482       .  S
C1041      O1043   1.265       .  A
C1041      O1047   1.258       .  A
C1045      C1081   1.516       .  S
In1048     O1050   2.250       .  S
In1048     O1051   2.251       .  S
In1048     O1059   2.238       .  S
In1048     O1053   2.275       .  S
In1048     O1055   2.253       .  S
In1048     O1056   2.275       .  S
In1048     O1057   2.257       .  S
In1048     O1060   2.222       .  S
C1049      C1084   1.502       .  S
C1049      O1055   1.265       .  A
C1049      O1057   1.260       .  A
O1050      C1058   1.260       .  A
O1051      C1058   1.264       .  A
C1052      C1194   1.482       .  S
C1052      O1059   1.259       .  A
C1052      O1053   1.262       .  A
C1054      C1174   1.480       .  S
C1054      O1056   1.262       .  A
C1054      O1060   1.258       .  A
N1061      C1066   1.360       .  A
N1061      C1065   1.363       .  A
N1061      H1093   1.043       .  S
N1062      C1069   1.362       .  A
N1062      C1470   1.359       .  A
N1063      C1068   1.362       .  A
N1063      C1067   1.362       .  A
N1063      H1094   1.034       .  S
N1064      C1471   1.358       .  A
N1064      C1072   1.357   1_565  A
C1065      C1073   1.387       .  A
C1065      C1081   1.425       .  A
C1066      C1082   1.423       .  A
C1066      C1074   1.387       .  A
C1067      C1075   1.388       .  A
C1067      C1084   1.424       .  A
C1068      C1083   1.425       .  A
C1068      C1076   1.388       .  A
C1069      C1081   1.428       .  A
C1069      C1077   1.386       .  A
C1070      N1462   1.357   1_545  A
C1070      C1084   1.424       .  A
C1070      C1078   1.387       .  A
C1071      N1464   1.356       .  A
C1071      C1079   1.388       .  A
C1071      C1082   1.424       .  A
C1072      C1080   1.387       .  A
C1072      C1083   1.425       .  A
C1073      C1074   1.365       .  A
C1073      H1085   1.082       .  S
C1074      H1086   1.082       .  S
C1075      C1076   1.365       .  A
C1075      H1087   1.082       .  S
C1076      H1088   1.082       .  S
C1077      C1478   1.373       .  A
C1077      H1089   1.080       .  S
C1078      C1477   1.372   1_545  A
C1078      H1090   1.080       .  S
C1079      C1480   1.370       .  A
C1079      H1091   1.080       .  S
C1080      C1479   1.370   1_545  A
C1080      H1092   1.080       .  S
C1082      C1096   1.498       .  S
C1083      C1114   1.504       .  S
In1095     O1097   2.220       .  S
In1095     O1098   2.274       .  S
In1095     O1106   2.220       .  S
In1095     O1100   2.265       .  S
In1095     O1102   2.248       .  S
In1095     O1103   2.244       .  S
In1095     O1104   2.244       .  S
In1095     O1107   2.257       .  S
C1096      O1102   1.266       .  A
C1096      O1104   1.261       .  A
O1097      C1105   1.258       .  A
O1098      C1105   1.264       .  A
C1099      C1154   1.475       .  S
C1099      O1106   1.258       .  A
C1099      O1100   1.264       .  A
C1101      O1103   1.266       .  A
C1101      O1107   1.261       .  A
C1105      C1134   1.482       .  S
In1108     O1110   2.243       .  S
In1108     O1111   2.278       .  S
In1108     O1119   2.224       .  S
In1108     O1113   2.281       .  S
In1108     O1115   2.271       .  S
In1108     O1116   2.265       .  S
In1108     O1117   2.255       .  S
In1108     O1120   2.264       .  S
C1109      O1115   1.266       .  A
C1109      O1117   1.258       .  A
O1110      C1118   1.260       .  A
O1111      C1118   1.264       .  A
C1112      C1125   1.480       .  S
C1112      O1119   1.258       .  A
C1112      O1113   1.265       .  A
C1114      O1116   1.264       .  A
C1114      O1120   1.259       .  A
C1118      C1145   1.486       .  S
C1121      C1122   1.403       .  A
C1121      C1126   1.395       .  A
C1121      H1131   1.084       .  S
C1122      C1123   1.406       .  A
C1122      C1127   1.483       .  S
C1123      C1124   1.405       .  A
C1123      F1128   1.357       .  S
C1124      C1125   1.407       .  A
C1124      H1129   1.083       .  S
C1125      C1126   1.407       .  A
C1126      F1130   1.358       .  S
C1127      C1132   1.406       .  A
C1127      C1136   1.402       .  A
C1132      C1133   1.405       .  A
C1132      F1137   1.357       .  S
C1133      C1134   1.408       .  A
C1133      H1138   1.083       .  S
C1134      C1135   1.409       .  A
C1135      C1136   1.394       .  A
C1135      F1139   1.358       .  S
C1136      H1140   1.084       .  S
C1141      C1142   1.404       .  A
C1141      C1146   1.401   1_554  A
C1141      H1151   1.083       .  S
C1142      C1143   1.409   1_554  A
C1143      C1144   1.406       .  A
C1144      C1145   1.407       .  A
C1144      H1149   1.083       .  S
C1145      C1146   1.408       .  A
C1146      F1150   1.358   1_556  S
C1147      C1152   1.404       .  A
C1147      C1156   1.402       .  A
C1152      C1153   1.403       .  A
C1152      F1157   1.357       .  S
C1153      C1154   1.406       .  A
C1153      H1158   1.083       .  S
C1154      C1155   1.406       .  A
C1155      C1156   1.396       .  A
C1155      F1159   1.358       .  S
C1161      C1162   1.401       .  A
C1161      C1166   1.392       .  A
C1161      H1171   1.084       .  S
C1162      C1163   1.407       .  A
C1162      C1167   1.484       .  S
C1163      C1164   1.408       .  A
C1163      F1168   1.357       .  S
C1164      C1165   1.410       .  A
C1164      H1169   1.083       .  S
C1165      C1166   1.408       .  A
C1166      F1170   1.357       .  S
C1167      C1172   1.406       .  A
C1167      C1176   1.406       .  A
C1172      C1173   1.393       .  A
C1172      F1177   1.358       .  S
C1173      C1174   1.403       .  A
C1173      H1178   1.083       .  S
C1174      C1175   1.409       .  A
C1175      C1176   1.406       .  A
C1175      F1179   1.357       .  S
C1176      H1180   1.083       .  S
C1181      C1182   1.401       .  A
C1181      C1186   1.394       .  A
C1182      C1183   1.404       .  A
C1183      C1184   1.404       .  A
C1183      F1188   1.357       .  S
C1184      C1185   1.408       .  A
C1184      H1189   1.083       .  S
C1185      C1186   1.409       .  A
C1186      F1190   1.358       .  S
C1187      C1192   1.402       .  A
C1187      C1196   1.403   1_554  A
C1192      C1193   1.396   1_554  A
C1193      C1194   1.405       .  A
C1193      H1198   1.083   1_556  S
C1194      C1195   1.410       .  A
C1195      C1196   1.405       .  A
C1195      F1199   1.357       .  S
C1196      H1200   1.083       .  S
N1201      C1206   1.359       .  A
N1201      H1233   1.050       .  S
N1202      C1210   1.357   1_545  A
N1203      C1207   1.357       .  A
N1203      H1234   1.040   1_655  S
N1204      C1212   1.355       .  A
C1205      C1213   1.388       .  A
C1205      C1221   1.422       .  A
C1206      C1222   1.422       .  A
C1206      C1214   1.387       .  A
C1207      C1215   1.389       .  A
C1207      C1224   1.419       .  A
C1208      C1223   1.416       .  A
C1208      C1216   1.387       .  A
C1209      C1221   1.426       .  A
C1209      C1217   1.387       .  A
C1210      C1224   1.422       .  A
C1210      C1218   1.384       .  A
C1211      C1219   1.386       .  A
C1211      C1222   1.423       .  A
C1212      C1220   1.386       .  A
C1212      C1223   1.419       .  A
C1213      H1225   1.081       .  S
C1214      H1226   1.082       .  S
C1215      H1227   1.082       .  S
C1216      H1228   1.082       .  S
C1217      H1229   1.080       .  S
C1218      H1230   1.081       .  S
C1219      H1231   1.081       .  S
C1220      H1232   1.080       .  S
C1221      C1309   1.503       .  S
C1222      C1258   1.499       .  S
C1223      C1236   1.494       .  S
C1224      C1301   1.497       .  S
In1235     O1237   2.263       .  S
In1235     O1238   2.243       .  S
In1235     O1246   2.225       .  S
In1235     O1240   2.276       .  S
In1235     O1242   2.244       .  S
In1235     O1243   2.269       .  S
In1235     O1244   2.243       .  S
In1235     O1247   2.231       .  S
C1236      O1242   1.266       .  A
C1236      O1244   1.260       .  A
O1237      C1245   1.262       .  A
O1238      C1245   1.264       .  A
C1239      C1365   1.485       .  S
C1239      O1246   1.259       .  A
C1239      O1240   1.264       .  A
C1241      C1385   1.480       .  S
C1241      O1243   1.264       .  A
C1241      O1247   1.259       .  A
C1245      C1281   1.500       .  S
In1248     O1250   2.256       .  S
In1248     O1251   2.248       .  S
In1248     O1259   2.240       .  S
In1248     O1253   2.279       .  S
In1248     O1255   2.260       .  S
In1248     O1256   2.277       .  S
In1248     O1257   2.258       .  S
In1248     O1260   2.232       .  S
C1249      C1284   1.501       .  S
C1249      O1255   1.267       .  A
C1249      O1257   1.260       .  A
O1250      C1258   1.261       .  A
O1251      C1258   1.266       .  A
C1252      C1394   1.488       .  S
C1252      O1259   1.259       .  A
C1252      O1253   1.266       .  A
C1254      C1374   1.486       .  S
C1254      O1256   1.265       .  A
C1254      O1260   1.260       .  A
N1261      C1266   1.358       .  A
N1261      C1265   1.358       .  A
N1261      H1293   1.044       .  S
N1262      C1269   1.358   1_545  A
N1263      C1268   1.359       .  A
N1263      C1267   1.360       .  A
N1263      H1294   1.034       .  S
N1264      C1272   1.357       .  A
C1265      C1273   1.388       .  A
C1265      C1281   1.420       .  A
C1266      C1282   1.418       .  A
C1266      C1274   1.387       .  A
C1267      C1275   1.387       .  A
C1267      C1284   1.419       .  A
C1268      C1283   1.421       .  A
C1268      C1276   1.389       .  A
C1269      C1281   1.422       .  A
C1269      C1277   1.385       .  A
C1270      C1284   1.424       .  A
C1270      C1278   1.386       .  A
C1271      C1279   1.384       .  A
C1271      C1282   1.423       .  A
C1272      C1280   1.387       .  A
C1272      C1283   1.424       .  A
C1273      C1274   1.365       .  A
C1273      H1285   1.082       .  S
C1274      H1286   1.082       .  S
C1275      C1276   1.360       .  A
C1275      H1287   1.082       .  S
C1276      H1288   1.082       .  S
C1277      H1289   1.081       .  S
C1278      H1290   1.080       .  S
C1279      H1291   1.081       .  S
C1280      H1292   1.081       .  S
C1282      C1296   1.499       .  S
C1283      C1314   1.498       .  S
In1295     O1297   2.224       .  S
In1295     O1298   2.277       .  S
In1295     O1306   2.233       .  S
In1295     O1300   2.276       .  S
In1295     O1302   2.259       .  S
In1295     O1303   2.245       .  S
In1295     O1304   2.248       .  S
In1295     O1307   2.264       .  S
C1296      O1302   1.267       .  A
C1296      O1304   1.261       .  A
O1297      C1305   1.260       .  A
O1298      C1305   1.267       .  A
C1299      C1354   1.488       .  S
C1299      O1306   1.260       .  A
C1299      O1300   1.266       .  A
C1301      O1303   1.266       .  A
C1301      O1307   1.263       .  A
C1305      C1334   1.488       .  S
In1308     O1310   2.232       .  S
In1308     O1311   2.284       .  S
In1308     O1319   2.234       .  S
In1308     O1313   2.284       .  S
In1308     O1315   2.254       .  S
In1308     O1316   2.243       .  S
In1308     O1317   2.253       .  S
In1308     O1320   2.256       .  S
C1309      O1315   1.267       .  A
C1309      O1317   1.260       .  A
O1310      C1318   1.259       .  A
O1311      C1318   1.265       .  A
C1312      C1325   1.491       .  S
C1312      O1319   1.259       .  A
C1312      O1313   1.266       .  A
C1314      O1316   1.266       .  A
C1314      O1320   1.261       .  A
C1318      C1345   1.487       .  S
C1321      C1322   1.404       .  A
C1321      C1326   1.400       .  A
C1321      H1331   1.083       .  S
C1322      C1323   1.408       .  A
C1322      C1327   1.493       .  S
C1323      C1324   1.408       .  A
C1323      F1328   1.357       .  S
C1324      C1325   1.408       .  A
C1324      H1329   1.083       .  S
C1325      C1326   1.410       .  A
C1326      F1330   1.358       .  S
C1327      C1332   1.408       .  A
C1327      C1336   1.404       .  A
C1332      C1333   1.408       .  A
C1332      F1337   1.357       .  S
C1333      C1334   1.408       .  A
C1333      H1338   1.083       .  S
C1334      C1335   1.409       .  A
C1335      C1336   1.399       .  A
C1335      F1339   1.358       .  S
C1336      H1340   1.083       .  S
C1341      C1342   1.404       .  A
C1341      C1346   1.395       .  A
C1341      H1351   1.084       .  S
C1342      C1343   1.408       .  A
C1342      C1547   1.489       .  S
C1343      C1344   1.408       .  A
C1343      F1548   1.357       .  S
C1344      C1345   1.409       .  A
C1344      H1349   1.083       .  S
C1345      C1346   1.408       .  A
C1346      F1350   1.357       .  S
C1347      C1352   1.409       .  A
C1347      C1356   1.406       .  A
C1347      C1542   1.493       .  S
F1348      C1543   1.357       .  S
C1352      C1353   1.408       .  A
C1352      F1357   1.357       .  S
C1353      C1354   1.409       .  A
C1353      H1358   1.083       .  S
C1354      C1355   1.408       .  A
C1355      C1356   1.396       .  A
C1355      F1359   1.357       .  S
C1356      H1560   1.083   1_554  S
H1360      C1556   1.084       .  S
C1361      C1362   1.403       .  A
C1361      C1366   1.394       .  A
C1361      H1371   1.084       .  S
C1362      C1363   1.407       .  A
C1362      C1367   1.486       .  S
C1363      C1364   1.407       .  A
C1363      F1368   1.357       .  S
C1364      C1365   1.409       .  A
C1364      H1369   1.083       .  S
C1365      C1366   1.408       .  A
C1366      F1370   1.358       .  S
C1367      C1372   1.405       .  A
C1367      C1376   1.405       .  A
C1372      C1373   1.396       .  A
C1372      F1377   1.358       .  S
C1373      C1374   1.404       .  A
C1373      H1378   1.083       .  S
C1374      C1375   1.411       .  A
C1375      C1376   1.407       .  A
C1375      F1379   1.357       .  S
C1376      H1380   1.083       .  S
C1381      C1382   1.404   1_556  A
C1381      C1386   1.397   1_556  A
C1381      H1591   1.084       .  S
C1382      C1383   1.407       .  A
C1382      C1587   1.486       .  S
C1383      C1384   1.405       .  A
C1383      F1388   1.357       .  S
C1384      C1385   1.407       .  A
C1384      H1389   1.083       .  S
C1385      C1386   1.406       .  A
C1386      F1390   1.358   1_554  S
C1387      C1392   1.408       .  A
C1387      C1396   1.404       .  A
C1387      C1582   1.489       .  S
H1391      C1581   1.083       .  S
C1392      C1393   1.401       .  A
C1392      F1597   1.358       .  S
C1393      C1394   1.407       .  A
C1393      H1398   1.083       .  S
C1394      C1395   1.409       .  A
C1395      C1396   1.405       .  A
C1395      F1399   1.357       .  S
C1396      H1400   1.083       .  S
F1397      C1592   1.358       .  S
N1401      C1406   1.358       .  A
N1401      H1433   1.043       .  S
N1402      C1410   1.360       .  A
N1403      C1407   1.361       .  A
N1403      H1434   1.036       .  S
N1404      C1412   1.358       .  A
C1405      C1413   1.387       .  A
C1405      C1421   1.426       .  A
C1406      C1422   1.422       .  A
C1406      C1414   1.388       .  A
C1407      C1415   1.388       .  A
C1407      C1424   1.425       .  A
C1408      C1423   1.420       .  A
C1408      C1416   1.386       .  A
C1409      C1421   1.428       .  A
C1409      C1417   1.389       .  A
C1410      C1424   1.429       .  A
C1410      C1418   1.387       .  A
C1411      C1419   1.386       .  A
C1411      C1422   1.424       .  A
C1412      C1420   1.387       .  A
C1412      C1423   1.423       .  A
C1413      H1425   1.081       .  S
C1414      H1426   1.082       .  S
C1415      H1427   1.082       .  S
C1416      H1428   1.082       .  S
C1417      H1429   1.079       .  S
C1418      H1430   1.080       .  S
C1419      H1431   1.081       .  S
C1420      H1432   1.079       .  S
C1421      C1509   1.507       .  S
C1422      C1458   1.499       .  S
C1423      C1436   1.506       .  S
C1424      C1501   1.508       .  S
In1435     O1437   2.256       .  S
In1435     O1438   2.253       .  S
In1435     O1446   2.236       .  S
In1435     O1440   2.270       .  S
In1435     O1442   2.259       .  S
In1435     O1443   2.280       .  S
In1435     O1444   2.256       .  S
In1435     O1447   2.225       .  S
C1436      O1442   1.266       .  A
C1436      O1444   1.261       .  A
O1437      C1445   1.261       .  A
O1438      C1445   1.266       .  A
C1439      C1565   1.486       .  S
C1439      O1446   1.260       .  A
C1439      O1440   1.266       .  A
C1441      C1585   1.486       .  S
C1441      O1443   1.266       .  A
C1441      O1447   1.259       .  A
C1445      C1481   1.502       .  S
In1448     O1450   2.265       .  S
In1448     O1451   2.249       .  S
In1448     O1459   2.229       .  S
In1448     O1453   2.282       .  S
In1448     O1455   2.263       .  S
In1448     O1456   2.287       .  S
In1448     O1457   2.256       .  S
In1448     O1460   2.228       .  S
C1449      C1484   1.505       .  S
C1449      O1455   1.267       .  A
C1449      O1457   1.260       .  A
O1450      C1458   1.261       .  A
O1451      C1458   1.265       .  A
C1452      C1594   1.488       .  S
C1452      O1459   1.259       .  A
C1452      O1453   1.266       .  A
C1454      C1574   1.489       .  S
C1454      O1456   1.265       .  A
C1454      O1460   1.260       .  A
N1461      C1466   1.360       .  A
N1461      C1465   1.359       .  A
N1461      H1493   1.041       .  S
N1462      C1469   1.357       .  A
N1463      C1468   1.363       .  A
N1463      C1467   1.360       .  A
N1463      H1494   1.037       .  S
N1464      C1472   1.358       .  A
C1465      C1473   1.388       .  A
C1465      C1481   1.421       .  A
C1466      C1482   1.420       .  A
C1466      C1474   1.387       .  A
C1467      C1475   1.389       .  A
C1467      C1484   1.425       .  A
C1468      C1483   1.423       .  A
C1468      C1476   1.387       .  A
C1469      C1481   1.424       .  A
C1469      C1477   1.387       .  A
C1470      C1484   1.430       .  A
C1470      C1478   1.388       .  A
C1471      C1479   1.386       .  A
C1471      C1482   1.424       .  A
C1472      C1480   1.386       .  A
C1472      C1483   1.423       .  A
C1473      C1474   1.366       .  A
C1473      H1485   1.082       .  S
C1474      H1486   1.082       .  S
C1475      C1476   1.365       .  A
C1475      H1487   1.082       .  S
C1476      H1488   1.082       .  S
C1477      H1489   1.080       .  S
C1478      H1490   1.080       .  S
C1479      H1491   1.080       .  S
C1480      H1492   1.080       .  S
C1482      C1496   1.506       .  S
C1483      C1514   1.507       .  S
In1495     O1497   2.236       .  S
In1495     O1498   2.283       .  S
In1495     O1506   2.211       .  S
In1495     O1500   2.286       .  S
In1495     O1502   2.260       .  S
In1495     O1503   2.259       .  S
In1495     O1504   2.253       .  S
In1495     O1507   2.282       .  S
C1496      O1502   1.267       .  A
C1496      O1504   1.261       .  A
O1497      C1505   1.260       .  A
O1498      C1505   1.266       .  A
C1499      C1554   1.485       .  S
C1499      O1506   1.259       .  A
C1499      O1500   1.267       .  A
C1501      O1503   1.265       .  A
C1501      O1507   1.261       .  A
C1505      C1534   1.489       .  S
In1508     O1510   2.223       .  S
In1508     O1511   2.275       .  S
In1508     O1519   2.223       .  S
In1508     O1513   2.285       .  S
In1508     O1515   2.262       .  S
In1508     O1516   2.261       .  S
In1508     O1517   2.251       .  S
In1508     O1520   2.265       .  S
C1509      O1515   1.268       .  A
C1509      O1517   1.261       .  A
O1510      C1518   1.259       .  A
O1511      C1518   1.267       .  A
C1512      C1525   1.488       .  S
C1512      O1519   1.259       .  A
C1512      O1513   1.267       .  A
C1514      O1516   1.266       .  A
C1514      O1520   1.262       .  A
C1518      C1545   1.486       .  S
C1521      C1522   1.405       .  A
C1521      C1526   1.396       .  A
C1521      H1531   1.084       .  S
C1522      C1523   1.410       .  A
C1522      C1527   1.494       .  S
C1523      C1524   1.409       .  A
C1523      F1528   1.357       .  S
C1524      C1525   1.408       .  A
C1524      H1529   1.083       .  S
C1525      C1526   1.408       .  A
C1526      F1530   1.358       .  S
C1527      C1532   1.409       .  A
C1527      C1536   1.405       .  A
C1532      C1533   1.409       .  A
C1532      F1537   1.357       .  S
C1533      C1534   1.409       .  A
C1533      H1538   1.083       .  S
C1534      C1535   1.408       .  A
C1535      C1536   1.397       .  A
C1535      F1539   1.358       .  S
C1536      H1540   1.084       .  S
C1541      C1542   1.404       .  A
C1541      C1546   1.396   1_554  A
C1541      H1551   1.083       .  S
C1542      C1543   1.410   1_554  A
C1543      C1544   1.407       .  A
C1544      C1545   1.407       .  A
C1544      H1549   1.083       .  S
C1545      C1546   1.409       .  A
C1546      F1550   1.358       .  S
C1547      C1552   1.409       .  A
C1547      C1556   1.403       .  A
C1552      C1553   1.409       .  A
C1552      F1557   1.357       .  S
C1553      C1554   1.408       .  A
C1553      H1558   1.083       .  S
C1554      C1555   1.408       .  A
C1555      C1556   1.393       .  A
C1555      F1559   1.358       .  S
C1561      C1562   1.406       .  A
C1561      C1566   1.399       .  A
C1561      H1571   1.084       .  S
C1562      C1563   1.408       .  A
C1562      C1567   1.493       .  S
C1563      C1564   1.407       .  A
C1563      F1568   1.357       .  S
C1564      C1565   1.408       .  A
C1564      H1569   1.083       .  S
C1565      C1566   1.408       .  A
C1566      F1570   1.358       .  S
C1567      C1572   1.406       .  A
C1567      C1576   1.408       .  A
C1572      C1573   1.396       .  A
C1572      F1577   1.358       .  S
C1573      C1574   1.404       .  A
C1573      H1578   1.083       .  S
C1574      C1575   1.411       .  A
C1575      C1576   1.410       .  A
C1575      F1579   1.357       .  S
C1576      H1580   1.083       .  S
C1581      C1582   1.403       .  A
C1581      C1586   1.397       .  A
C1582      C1583   1.408       .  A
C1583      C1584   1.407       .  A
C1583      F1588   1.357       .  S
C1584      C1585   1.408       .  A
C1584      H1589   1.083       .  S
C1585      C1586   1.409       .  A
C1586      F1590   1.358       .  S
C1587      C1592   1.405       .  A
C1587      C1596   1.405   1_554  A
C1592      C1593   1.397   1_554  A
C1593      C1594   1.406       .  A
C1593      H1598   1.083       .  S
C1594      C1595   1.411       .  A
C1595      C1596   1.408       .  A
C1595      F1599   1.357       .  S
C1596      H1600   1.083       .  S
