geometry optimzed in LAMMPS
_audit_creation_date              2020-11-30 
_audit_creation_method            'lammps2cif' 
_symmetry_space_group_name_H-M    'P1' 
_symmetry_Int_Tables_number       1 
_symmetry_cell_setting            triclinic 
loop_ 
_symmetry_equiv_pos_as_xyz 
  x,y,z 
_cell_length_a                    40.62635312 
_cell_length_b                    40.83768676303104 
_cell_length_c                    42.01508198077599 
_cell_angle_alpha                 90.09153863443757 
_cell_angle_beta                  90.22296941859105 
_cell_angle_gamma                 89.97533807235706 
loop_ 
_atom_site_label 
_atom_site_type_symbol 
_atom_site_fract_x 
_atom_site_fract_y 
_atom_site_fract_z 
_atom_site_charge 
N1          N  0.17759899  0.24561096  0.50212994    -0.01800
C2          C  0.15750425  0.25872189  0.02455527     0.00800
C3          C  0.12494674  0.25281636  0.01669619    -0.22100
C4          C  0.12498241  0.23594798  0.48841768    -0.22300
C5          C  0.15755806  0.23167979  0.47999611     0.00700
H6          H  0.10334686  0.26064120  0.02963573     0.14500
H7          H  0.10346684  0.22743724  0.47560457     0.14500
N8          N  0.42340711  0.24533640  0.49732758    -0.01800
C9          C  0.44337677  0.23041305  0.01887564     0.00800
C10         C  0.47597153  0.23494619  0.01065816    -0.22100
C11         C  0.47607275  0.25299259  0.48311132    -0.22300
C12         C  0.44353727  0.25932808  0.47548513     0.00700
H13         H  0.49745718  0.22588029  0.02314146     0.14500
H14         H  0.49769548  0.26126289  0.47051035     0.14500
N15         N  0.29756975  0.49882686  0.13091342    -0.01800
C16         C  0.28546510  0.47504909  0.11148750     0.00800
C17         C  0.29008159  0.48352847  0.07998365    -0.22100
C18         C  0.30517930  0.01364738  0.07997753    -0.22300
C19         C  0.30973754  0.02242326  0.11148835     0.00700
H20         H  0.28261227  0.46969993  0.05919385     0.14500
H21         H  0.31269314  0.02727627  0.05917500     0.14500
N22         N  0.29780371  0.99757743  0.36920742    -0.01800
C23         C  0.30971373  0.47391464  0.38883159     0.00800
C24         C  0.30450161  0.48252782  0.42025485    -0.22100
C25         C  0.28930319  0.01261306  0.41999273    -0.22300
C26         C  0.28528065  0.02122522  0.38841412     0.00700
H27         H  0.31183110  0.46891134  0.44118873     0.14500
H28         H  0.28155270  0.02643045  0.44064843     0.14500
N29         N  0.04757160  0.12613028  0.25094857    -0.01800
C30         C  0.02720233  0.10549414  0.23442948     0.00800
C31         C  0.03442884  0.07321581  0.24117881    -0.22100
C32         C  0.06043323  0.07342911  0.26194197    -0.22300
C33         C  0.06791727  0.10584029  0.26788251     0.00700
H34         H  0.02241935  0.05173047  0.23150665     0.14500
H35         H  0.07248845  0.05213045  0.27192450     0.14500
N36         N  0.04753340  0.37492984  0.24871749    -0.01800
C37         C  0.02816856  0.39559103  0.26611822     0.00800
C38         C  0.03482319  0.42783663  0.25873892    -0.22100
C39         C  0.05948424  0.42750640  0.23665404    -0.22300
C40         C  0.06672181  0.39505677  0.23062251     0.00700
H41         H  0.02332622  0.44938146  0.26880363     0.14500
H42         H  0.07088516  0.44873740  0.22597339     0.14500
N43         N  0.12586913  0.13728371  0.32743553    -0.25600
N44         N  0.14325821  0.11340194  0.31450342    -0.33500
C45         C  0.12526134  0.09915495  0.29148186     0.02700
C46         C  0.09520306  0.11498292  0.28951527     0.08800
C47         C  0.09625812  0.13890496  0.31290665    -0.04300
H48         H  0.13333805  0.07847280  0.27738236     0.09400
H49         H  0.07683210  0.15574812  0.31929956     0.10600
Cu50       Cu  0.18946374  0.09908911  0.33055168     0.44200
Cu51       Cu  0.14309903  0.16462382  0.36556948     0.42000
Cu52       Cu  0.22139641  0.14105682  0.40058715     0.43900
N53         N  0.23041590  0.08346950  0.35601568    -0.33000
N54         N  0.24159384  0.09856464  0.38174402    -0.27200
C55         C  0.26434310  0.07953981  0.39581354    -0.03300
C56         C  0.26785462  0.05117033  0.37810833     0.08900
C57         C  0.24601224  0.05453256  0.35295154     0.02700
H58         H  0.27583720  0.08497770  0.41848020     0.10300
H59         H  0.23964938  0.03611894  0.33544521     0.09400
N60         N  0.19175821  0.17793890  0.41885052    -0.34400
N61         N  0.16319028  0.18607007  0.40591859    -0.26600
C62         C  0.14795489  0.20761387  0.42494493    -0.01900
C63         C  0.16772265  0.21351465  0.45119676     0.06800
C64         C  0.19542504  0.19427499  0.44655214     0.04800
H65         H  0.12342855  0.21700464  0.42071992     0.10000
H66         H  0.21558625  0.19049558  0.46304392     0.08800
N67         N  0.41037720  0.31924242  0.41912458    -0.25600
N68         N  0.43869569  0.31155446  0.40557912    -0.33500
C69         C  0.45345442  0.28802860  0.42271351     0.02700
C70         C  0.43367703  0.28029567  0.44835166     0.08800
C71         C  0.40645665  0.30060418  0.44532486    -0.04300
H72         H  0.47764563  0.27829937  0.41760962     0.09400
H73         H  0.38634815  0.30326877  0.46192201     0.10600
Cu74       Cu  0.45888991  0.33517172  0.36654519     0.44200
Cu75       Cu  0.38053899  0.35748521  0.40332504     0.42000
Cu76       Cu  0.41062217  0.40084696  0.33431051     0.43900
N77         N  0.97465241  0.36386413  0.32885567    -0.33000
N78         N  0.45652396  0.38791745  0.31718495    -0.27200
C79         C  0.97303153  0.40256160  0.29357208    -0.03300
C80         C  0.00285915  0.38678082  0.28977674     0.08900
C81         C  0.00329833  0.36249025  0.31278883     0.02700
H82         H  0.46385031  0.42312230  0.27995389     0.10300
H83         H  0.02292777  0.34527363  0.31759971     0.09400
N84         N  0.36868640  0.41447109  0.35877140    -0.34400
N85         N  0.35811046  0.39910940  0.38444171    -0.26600
C86         C  0.33385677  0.41689241  0.39762257    -0.01900
C87         C  0.32877178  0.44466808  0.37931533     0.06800
C88         C  0.35128970  0.44224171  0.35481130     0.04800
H89         H  0.32227495  0.41112304  0.42006751     0.10000
H90         H  0.35681325  0.46066903  0.33716568     0.08800
N91         N  0.14077233  0.38635095  0.18299330    -0.25600
N92         N  0.12328833  0.36197988  0.17098939    -0.33500
C93         C  0.09389235  0.36086898  0.18577102     0.02700
C94         C  0.09315614  0.38566312  0.20832842     0.08800
C95         C  0.12310364  0.40144163  0.20558592    -0.04300
H96         H  0.07453553  0.34354201  0.18034658     0.09400
H97         H  0.13149963  0.42241113  0.21913194     0.10600
Cu98       Cu  0.14072929  0.33278835  0.13431429     0.44200
Cu99       Cu  0.18708396  0.39959736  0.16708452     0.42000
Cu100      Cu  0.21891668  0.35622643  0.09849451     0.43900
N101        N  0.16185790  0.30922984  0.09567961    -0.33000
N102        N  0.19012016  0.31742341  0.08236164    -0.27200
C103        C  0.19436122  0.29923401  0.05586173    -0.03300
C104        C  0.16739022  0.27869549  0.05240242     0.08900
C105        C  0.14746298  0.28577823  0.07813195     0.02700
H106        H  0.21433925  0.30256864  0.03923310     0.10300
H107        H  0.12325508  0.27592981  0.08283915     0.09400
N108        N  0.23976125  0.39876540  0.11702576    -0.34400
N109        N  0.22865227  0.41416946  0.14252112    -0.26600
C110        C  0.24499017  0.44263586  0.14601859    -0.01900
C111        C  0.26731539  0.44543122  0.12138650     0.06800
C112        C  0.26325825  0.41718221  0.10350439     0.04800
H113        H  0.23884873  0.46118368  0.16342556     0.10000
H114        H  0.27499559  0.41143590  0.08110790     0.08800
N115        N  0.97175996  0.13561845  0.17220476    -0.25600
N116        N  0.45360306  0.11241708  0.18521996    -0.33500
C117        C  0.97056413  0.09872462  0.20923911     0.02700
C118        C  0.00070929  0.11426589  0.21179569     0.08800
C119        C  0.00080150  0.13742516  0.18775118    -0.04300
H120        H  0.46171066  0.07864457  0.22365275     0.09400
H121        H  0.02066700  0.15381469  0.18157984     0.10600
Cu122      Cu  0.40761404  0.09856474  0.16829520     0.44200
Cu123      Cu  0.45624792  0.16183038  0.13271328     0.42000
Cu124      Cu  0.37754638  0.13989374  0.09719830     0.43900
N125        N  0.36637853  0.08368205  0.14286442    -0.33000
N126        N  0.35578576  0.09852396  0.11681006    -0.27200
C127        C  0.33238547  0.07995658  0.10311661    -0.03300
C128        C  0.32786913  0.05214361  0.12138640     0.08900
C129        C  0.34980224  0.05538661  0.14649028     0.02700
H130        H  0.32114414  0.08521167  0.08029406     0.10300
H131        H  0.35556627  0.03720922  0.16434816     0.09400
N132        N  0.40837611  0.17581470  0.07889697    -0.34400
N133        N  0.43710581  0.18320622  0.09193072    -0.26600
C134        C  0.45279162  0.20463512  0.07319411    -0.01900
C135        C  0.43313722  0.21131495  0.04705455     0.06800
C136        C  0.40505027  0.19257194  0.05142723     0.04800
H137        H  0.47737215  0.21372545  0.07772107     0.10000
H138        H  0.38466221  0.18965899  0.03503793     0.08800
C139        C  0.01809879  0.21358238  0.24416257     0.14400
C140        C  0.04699104  0.23202273  0.25027999     0.01300
C141        C  0.07600705  0.21393456  0.25680131     0.16300
C142        C  0.07679826  0.17997016  0.25258306     0.25700
C143        C  0.04738376  0.16183445  0.25070567    -0.40600
C144        C  0.01773294  0.17963604  0.24863620     0.32800
C145        C  0.04700458  0.26918797  0.24977129     0.01400
F146        F  0.10360409  0.22833113  0.26845991    -0.12900
F147        F  0.48811934  0.16455832  0.25093375    -0.14600
C148        C  0.01812303  0.28765928  0.25577304     0.16300
C149        C  0.01775112  0.32160769  0.25136891     0.25700
C150        C  0.04737891  0.33929724  0.24911646    -0.40600
C151        C  0.07678795  0.32123116  0.24719021     0.32700
C152        C  0.07601954  0.28723019  0.24330240     0.14400
F153        F  0.99028636  0.27371969  0.26715001    -0.12900
F154        F  0.10653308  0.33617618  0.24896483    -0.13400
F155        F  0.98818052  0.33692716  0.24958845    -0.15700
F156        F  0.10362379  0.27275010  0.23194637    -0.14300
F157        F  0.49022676  0.22754903  0.23265705    -0.14300
F158        F  0.10659085  0.16524099  0.25020500    -0.15700
C159        C  0.31294419  0.02384862  0.28495813     0.14400
C160        C  0.29745748  0.99860179  0.26772964     0.01300
C161        C  0.28220382  0.47294089  0.28439914     0.16300
C162        C  0.28247633  0.47253265  0.31772863     0.25700
C163        C  0.29811390  0.99766297  0.33490791    -0.40600
C164        C  0.31338086  0.02329281  0.31827959     0.32800
C165        C  0.29752563  0.99880885  0.23240889     0.01400
F166        F  0.26645311  0.44864866  0.26834700    -0.12900
F167        F  0.32902111  0.04756423  0.33442572    -0.13500
C168        C  0.31283346  0.47332646  0.21545873     0.16300
C169        C  0.31297584  0.47344466  0.18214215     0.25700
C170        C  0.29762940  0.49889866  0.16521954    -0.40600
C171        C  0.28235083  0.02440009  0.18211880     0.32700
C172        C  0.28239146  0.02443706  0.21545983     0.14400
F173        F  0.32821512  0.44866069  0.23124489    -0.12900
F174        F  0.26695582  0.04896042  0.16622258    -0.13400
F175        F  0.32857556  0.44901209  0.16629142    -0.15700
F176        F  0.26711201  0.04915103  0.23122972    -0.14300
F177        F  0.32815621  0.04872183  0.26946208    -0.14300
F178        F  0.26686474  0.44801203  0.33334553    -0.15700
C179        C  0.33696155  0.26216041  0.02337577     0.14400
C180        C  0.31872864  0.24657308  0.49922720     0.01300
C181        C  0.33543124  0.23092670  0.47420131     0.16300
C182        C  0.36988113  0.23070914  0.47347877     0.25700
C183        C  0.38803718  0.24616064  0.49770093    -0.40600
C184        C  0.37139320  0.26198676  0.02256777     0.32800
C185        C  0.28230156  0.24659267  0.50017928     0.01400
F186        F  0.31833096  0.21529812  0.45087441    -0.12900
F187        F  0.38863818  0.27746811  0.04585758    -0.13500
C188        C  0.26408587  0.26294608  0.47654695     0.16300
C189        C  0.22965234  0.26283974  0.47737066     0.25700
C190        C  0.21298171  0.24633505  0.50174940    -0.40600
C191        C  0.23113121  0.23008395  0.02544027     0.32700
C192        C  0.26558313  0.23022011  0.02469297     0.14400
F193        F  0.27971694  0.27939234  0.45296779    -0.12900
F194        F  0.21535541  0.21356482  0.04885951    -0.13400
F195        F  0.21243521  0.27906304  0.45458553    -0.15700
F196        F  0.28267047  0.21381100  0.04747584    -0.14300
F197        F  0.32135028  0.27792855  0.04745665    -0.14300
F198        F  0.38565035  0.21491081  0.44953242    -0.15700
N199        N  0.17759819  0.24561052  0.00212897    -0.01800
C200        C  0.15750583  0.25872162  0.52455616     0.00800
C201        C  0.12494861  0.25281685  0.51669791    -0.22100
C202        C  0.12498089  0.23594693  0.98841636    -0.22300
C203        C  0.15755791  0.23167895  0.97999542     0.00700
H204        H  0.10335247  0.26064054  0.52963636     0.14500
H205        H  0.10346528  0.22743521  0.97560226     0.14500
N206        N  0.42340744  0.24533672  0.99732773    -0.01800
C207        C  0.44337623  0.23041303  0.51887567     0.00800
C208        C  0.47597103  0.23494486  0.51065858    -0.22100
C209        C  0.47607314  0.25299449  0.98311118    -0.22300
C210        C  0.44353683  0.25932926  0.97548523     0.00700
H211        H  0.49745583  0.22587910  0.52314141     0.14500
H212        H  0.49769747  0.26126701  0.97050804     0.14500
N213        N  0.29756996  0.49882725  0.63091261    -0.01800
C214        C  0.28546593  0.47504863  0.61148520     0.00800
C215        C  0.29008280  0.48353028  0.57998163    -0.22100
C216        C  0.30517963  0.01364712  0.57997830    -0.22300
C217        C  0.30973775  0.02242284  0.61148851     0.00700
H218        H  0.28261204  0.46969871  0.55918829     0.14500
H219        H  0.31269433  0.02727730  0.55917346     0.14500
N220        N  0.29780402  0.99757709  0.86920774    -0.01800
C221        C  0.30971435  0.47391394  0.88883137     0.00800
C222        C  0.30450181  0.48252691  0.92025472    -0.22100
C223        C  0.28930252  0.01261392  0.91999295    -0.22300
C224        C  0.28528090  0.02122561  0.88841441     0.00700
H225        H  0.31183212  0.46890839  0.94119125     0.14500
H226        H  0.28155104  0.02643242  0.94064879     0.14500
N227        N  0.04757064  0.12613055  0.75094813    -0.01800
C228        C  0.02720114  0.10549539  0.73442887     0.00800
C229        C  0.03442722  0.07321651  0.74117739    -0.22100
C230        C  0.06043160  0.07342926  0.76194053    -0.22300
C231        C  0.06791593  0.10584068  0.76788184     0.00700
H232        H  0.02241647  0.05172948  0.73150351     0.14500
H233        H  0.07248580  0.05213192  0.77192208     0.14500
N234        N  0.04753330  0.37492977  0.74871723    -0.01800
C235        C  0.02816910  0.39558958  0.76611800     0.00800
C236        C  0.03482310  0.42783648  0.75873859    -0.22100
C237        C  0.05948421  0.42750658  0.73665381    -0.22300
C238        C  0.06672237  0.39505689  0.73062153     0.00700
H239        H  0.02332431  0.44938041  0.76880426     0.14500
H240        H  0.07088822  0.44874191  0.72597098     0.14500
N241        N  0.12586777  0.13728359  0.82743566    -0.25600
N242        N  0.14325756  0.11339989  0.81450250    -0.33500
C243        C  0.12525996  0.09915440  0.79148143     0.02700
C244        C  0.09520142  0.11498280  0.78951470     0.08800
C245        C  0.09625760  0.13890495  0.81290669    -0.04300
H246        H  0.13333570  0.07847045  0.77737959     0.09400
H247        H  0.07682851  0.15575070  0.81930002     0.10600
Cu248      Cu  0.18946295  0.09908806  0.83055228     0.44200
Cu249      Cu  0.14309867  0.16462280  0.86556956     0.42000
Cu250      Cu  0.22139701  0.14105690  0.90058663     0.43900
N251        N  0.23041542  0.08346897  0.85601633    -0.33000
N252        N  0.24159341  0.09856443  0.88174328    -0.27200
C253        C  0.26434304  0.07954072  0.89581398    -0.03300
C254        C  0.26785479  0.05117088  0.87810951     0.08900
C255        C  0.24601212  0.05453160  0.85295262     0.02700
H256        H  0.27583752  0.08498113  0.91848220     0.10300
H257        H  0.23965012  0.03612018  0.83544957     0.09400
N258        N  0.19175923  0.17793834  0.91885019    -0.34400
N259        N  0.16318973  0.18606953  0.90591816    -0.26600
C260        C  0.14795483  0.20761278  0.92494446    -0.01900
C261        C  0.16772206  0.21351430  0.95119620     0.06800
C262        C  0.19542551  0.19427473  0.94655132     0.04800
H263        H  0.12342406  0.21700505  0.92071935     0.10000
H264        H  0.21558615  0.19049589  0.96304268     0.08800
N265        N  0.41037810  0.31924291  0.91912439    -0.25600
N266        N  0.43869838  0.31155472  0.90557959    -0.33500
C267        C  0.45345710  0.28802985  0.92271370     0.02700
C268        C  0.43368013  0.28029580  0.94835106     0.08800
C269        C  0.40645809  0.30060413  0.94532424    -0.04300
H270        H  0.47765877  0.27829699  0.91760811     0.09400
H271        H  0.38635480  0.30326667  0.96191690     0.10600
Cu272      Cu  0.45889135  0.33517241  0.86654584     0.44200
Cu273      Cu  0.38053912  0.35748442  0.90332452     0.42000
Cu274      Cu  0.41062354  0.40084696  0.83431103     0.43900
N275        N  0.97465192  0.36386527  0.82885560    -0.33000
N276        N  0.45652533  0.38791640  0.81718588    -0.27200
C277        C  0.97303234  0.40256187  0.79357143    -0.03300
C278        C  0.00285912  0.38678119  0.78977621     0.08900
C279        C  0.00329839  0.36249027  0.81278872     0.02700
H280        H  0.46385171  0.42311986  0.77995551     0.10300
H281        H  0.02292209  0.34527695  0.81759949     0.09400
N282        N  0.36868788  0.41447214  0.85876962    -0.34400
N283        N  0.35811058  0.39910888  0.88444100    -0.26600
C284        C  0.33385721  0.41689172  0.89762085    -0.01900
C285        C  0.32877256  0.44466845  0.87931400     0.06800
C286        C  0.35129140  0.44224232  0.85481024     0.04800
H287        H  0.32227303  0.41112189  0.92006829     0.10000
H288        H  0.35681520  0.46067214  0.83716324     0.08800
N289        N  0.14077327  0.38635208  0.68299412    -0.25600
N290        N  0.12328923  0.36197999  0.67098941    -0.33500
C291        C  0.09389336  0.36086928  0.68577044     0.02700
C292        C  0.09315634  0.38566383  0.70832816     0.08800
C293        C  0.12310421  0.40144244  0.70558603    -0.04300
H294        H  0.07453756  0.34354255  0.68034619     0.09400
H295        H  0.13150099  0.42241531  0.71913488     0.10600
Cu296      Cu  0.14073041  0.33278807  0.63431534     0.44200
Cu297      Cu  0.18708513  0.39959785  0.66708528     0.42000
Cu298      Cu  0.21891647  0.35622625  0.59849487     0.43900
N299        N  0.16185838  0.30922925  0.59568093    -0.33000
N300        N  0.19012027  0.31742307  0.58236268    -0.27200
C301        C  0.19436136  0.29923390  0.55586259    -0.03300
C302        C  0.16739045  0.27869515  0.55240398     0.08900
C303        C  0.14746318  0.28577773  0.57813358     0.02700
H304        H  0.21433885  0.30256887  0.53923387     0.10300
H305        H  0.12325488  0.27592976  0.58284152     0.09400
N306        N  0.23976016  0.39876564  0.61702734    -0.34400
N307        N  0.22865432  0.41416942  0.64251944    -0.26600
C308        C  0.24499361  0.44263645  0.64601615    -0.01900
C309        C  0.26731656  0.44543076  0.62138442     0.06800
C310        C  0.26325835  0.41718138  0.60350273     0.04800
H311        H  0.23885408  0.46118322  0.66342119     0.10000
H312        H  0.27498910  0.41143427  0.58111391     0.08800
N313        N  0.97175834  0.13561929  0.67220504    -0.25600
N314        N  0.45360159  0.11241880  0.68521998    -0.33500
C315        C  0.97056272  0.09872522  0.70923951     0.02700
C316        C  0.00070728  0.11426553  0.71179602     0.08800
C317        C  0.00080034  0.13742567  0.68775138    -0.04300
H318        H  0.46171044  0.07864986  0.72364888     0.09400
H319        H  0.02065985  0.15381051  0.68158213     0.10600
Cu320      Cu  0.40761293  0.09856611  0.66829656     0.44200
Cu321      Cu  0.45624648  0.16183205  0.63271354     0.42000
Cu322      Cu  0.37754627  0.13989320  0.59719822     0.43900
N323        N  0.36637751  0.08368170  0.64286492    -0.33000
N324        N  0.35578628  0.09852221  0.61681223    -0.27200
C325        C  0.33238533  0.07995399  0.60311823    -0.03300
C326        C  0.32786992  0.05214199  0.62138884     0.08900
C327        C  0.34980163  0.05538519  0.64649190     0.02700
H328        H  0.32114737  0.08520657  0.58030264     0.10300
H329        H  0.35556595  0.03720773  0.66435061     0.09400
N330        N  0.40837356  0.17581511  0.57889527    -0.34400
N331        N  0.43710645  0.18320817  0.59193123    -0.26600
C332        C  0.45279098  0.20463620  0.57319511    -0.01900
C333        C  0.43313681  0.21131619  0.54705437     0.06800
C334        C  0.40504909  0.19257184  0.55142664     0.04800
H335        H  0.47737823  0.21372973  0.57772273     0.10000
H336        H  0.38465774  0.18965835  0.53503206     0.08800
C337        C  0.01809869  0.21358269  0.74416181     0.14400
C338        C  0.04699088  0.23202282  0.75027918     0.01300
C339        C  0.07600719  0.21393473  0.75680091     0.16300
C340        C  0.07679762  0.17997019  0.75258288     0.25700
C341        C  0.04738337  0.16183484  0.75070534    -0.40600
C342        C  0.01773231  0.17963637  0.74863585     0.32800
C343        C  0.04700470  0.26918811  0.74977026     0.01400
F344        F  0.10360442  0.22833115  0.76845923    -0.12900
F345        F  0.48811899  0.16455858  0.75093398    -0.14600
C346        C  0.01812323  0.28765942  0.75577190     0.16300
C347        C  0.01775137  0.32160802  0.75136794     0.25700
C348        C  0.04737932  0.33929710  0.74911548    -0.40600
C349        C  0.07678805  0.32123116  0.74718921     0.32700
C350        C  0.07601967  0.28723009  0.74330141     0.14400
F351        F  0.99028649  0.27371996  0.76714879    -0.12900
F352        F  0.10653321  0.33617592  0.74896387    -0.13400
F353        F  0.98818085  0.33692736  0.74958759    -0.15700
F354        F  0.10362391  0.27274997  0.73194540    -0.14300
F355        F  0.49022664  0.22754912  0.73265619    -0.14300
F356        F  0.10659024  0.16524068  0.75020482    -0.15700
C357        C  0.31294306  0.02384936  0.78495806     0.14400
C358        C  0.29745743  0.99860197  0.76772946     0.01300
C359        C  0.28220492  0.47294017  0.78439884     0.16300
C360        C  0.28247753  0.47253181  0.81772830     0.25700
C361        C  0.29811424  0.99766287  0.83490839    -0.40600
C362        C  0.31337988  0.02329331  0.81827941     0.32800
C363        C  0.29752555  0.99880918  0.73240855     0.01400
F364        F  0.26645522  0.44864719  0.76834673    -0.12900
F365        F  0.32901925  0.04756547  0.83442545    -0.13500
C366        C  0.31283413  0.47332677  0.71545841     0.16300
C367        C  0.31297650  0.47344496  0.68214130     0.25700
C368        C  0.29762955  0.49889867  0.66521903    -0.40600
C369        C  0.28235014  0.02440008  0.68211834     0.32700
C370        C  0.28239085  0.02443702  0.71545977     0.14400
F371        F  0.32821649  0.44866135  0.73124474    -0.12900
F372        F  0.26695475  0.04895993  0.66622226    -0.13400
F373        F  0.32857660  0.44901277  0.66629083    -0.15700
F374        F  0.26711084  0.04915061  0.73122946    -0.14300
F375        F  0.32815393  0.04872315  0.76946196    -0.14300
F376        F  0.26686702  0.44801056  0.83334518    -0.15700
C377        C  0.33696090  0.26216115  0.52337544     0.14400
C378        C  0.31872911  0.24657289  0.99922734     0.01300
C379        C  0.33543210  0.23092703  0.97420114     0.16300
C380        C  0.36988181  0.23070970  0.97347882     0.25700
C381        C  0.38803799  0.24616077  0.99770099    -0.40600
C382        C  0.37139265  0.26198721  0.52256720     0.32800
C383        C  0.28230198  0.24659241  0.00017921     0.01400
F384        F  0.31833197  0.21529891  0.95087395    -0.12900
F385        F  0.38863767  0.27746907  0.54585665    -0.13500
C386        C  0.26408617  0.26294586  0.97654684     0.16300
C387        C  0.22965246  0.26283958  0.97737055     0.25700
C388        C  0.21298130  0.24633501  0.00174919    -0.40600
C389        C  0.23113135  0.23008397  0.52544034     0.32700
C390        C  0.26558308  0.23022021  0.52469304     0.14400
F391        F  0.27971752  0.27939212  0.95296766    -0.12900
F392        F  0.21535532  0.21356487  0.54885951    -0.13400
F393        F  0.21243577  0.27906305  0.95458526    -0.15700
F394        F  0.28267034  0.21381127  0.54747586    -0.14300
F395        F  0.32134987  0.27792998  0.54745594    -0.14300
F396        F  0.38565124  0.21491204  0.94953203    -0.15700
N397        N  0.17759783  0.74561103  0.50213005    -0.01800
C398        C  0.15750581  0.75872157  0.02455522     0.00800
C399        C  0.12494795  0.75281675  0.01669699    -0.22100
C400        C  0.12498071  0.73594836  0.48841822    -0.22300
C401        C  0.15755755  0.73167994  0.47999616     0.00700
H402        H  0.10335360  0.76064043  0.02963440     0.14500
H403        H  0.10346410  0.72743591  0.47560281     0.14500
N404        N  0.42340780  0.74533614  0.49732809    -0.01800
C405        C  0.44337713  0.73041309  0.01887604     0.00800
C406        C  0.47597096  0.73494589  0.01065888    -0.22100
C407        C  0.47607326  0.75299335  0.48311015    -0.22300
C408        C  0.44353735  0.75932822  0.47548418     0.00700
H409        H  0.49745638  0.72587993  0.02314275     0.14500
H410        H  0.49769915  0.76126631  0.47050518     0.14500
N411        N  0.29757010  0.99882768  0.13091329    -0.01800
C412        C  0.28546498  0.97504786  0.11148613     0.00800
C413        C  0.29008121  0.98352823  0.07998286    -0.22100
C414        C  0.30517984  0.51364771  0.07997900    -0.22300
C415        C  0.30973790  0.52242278  0.11148827     0.00700
H416        H  0.28260811  0.96969324  0.05918480     0.14500
H417        H  0.31269299  0.52727518  0.05917526     0.14500
N418        N  0.29780380  0.49757720  0.36920761    -0.01800
C419        C  0.30971451  0.97391378  0.38883162     0.00800
C420        C  0.30450242  0.98252666  0.42025518    -0.22100
C421        C  0.28930245  0.51261435  0.41999231    -0.22300
C422        C  0.28528094  0.52122585  0.38841402     0.00700
H423        H  0.31183393  0.96890623  0.44119409     0.14500
H424        H  0.28155174  0.52643204  0.44064901     0.14500
N425        N  0.04757159  0.62613073  0.25094858    -0.01800
C426        C  0.02720245  0.60549485  0.23442923     0.00800
C427        C  0.03442809  0.57321644  0.24117817    -0.22100
C428        C  0.06043253  0.57342927  0.26194144    -0.22300
C429        C  0.06791667  0.60584055  0.26788218     0.00700
H430        H  0.02241923  0.55173116  0.23150592     0.14500
H431        H  0.07248603  0.55213227  0.27192243     0.14500
N432        N  0.04753351  0.87492947  0.24871742    -0.01800
C433        C  0.02816868  0.89559088  0.26611828     0.00800
C434        C  0.03482324  0.92783630  0.25873858    -0.22100
C435        C  0.05948438  0.92750609  0.23665386    -0.22300
C436        C  0.06672187  0.89505664  0.23062230     0.00700
H437        H  0.02332565  0.94938137  0.26880288     0.14500
H438        H  0.07088570  0.94873717  0.22597341     0.14500
N439        N  0.12586896  0.63728362  0.32743546    -0.25600
N440        N  0.14325820  0.61340082  0.31450259    -0.33500
C441        C  0.12526123  0.59915439  0.29148141     0.02700
C442        C  0.09520300  0.61498211  0.28951468     0.08800
C443        C  0.09625814  0.63890481  0.31290659    -0.04300
H444        H  0.13333887  0.57846855  0.27737878     0.09400
H445        H  0.07683277  0.65574698  0.31929929     0.10600
Cu446      Cu  0.18946421  0.59908861  0.33055191     0.44200
Cu447      Cu  0.14309915  0.66462356  0.36556922     0.42000
Cu448      Cu  0.22139631  0.64105690  0.40058738     0.43900
N449        N  0.23041661  0.58346970  0.35601714    -0.33000
N450        N  0.24159416  0.59856401  0.38174453    -0.27200
C451        C  0.26434386  0.57953993  0.39581478    -0.03300
C452        C  0.26785614  0.55117179  0.37811003     0.08900
C453        C  0.24601406  0.55453248  0.35295302     0.02700
H454        H  0.27583978  0.58497897  0.41848518     0.10300
H455        H  0.23965383  0.53612352  0.33545299     0.09400
N456        N  0.19175820  0.67793914  0.41885083    -0.34400
N457        N  0.16319039  0.68607006  0.40591850    -0.26600
C458        C  0.14795463  0.70761390  0.42494464    -0.01900
C459        C  0.16772188  0.71351503  0.45119704     0.06800
C460        C  0.19542453  0.69427545  0.44655241     0.04800
H461        H  0.12342829  0.71700431  0.42071931     0.10000
H462        H  0.21558576  0.69049624  0.46304448     0.08800
N463        N  0.41037644  0.81924235  0.41912551    -0.25600
N464        N  0.43869770  0.81155387  0.40557852    -0.33500
C465        C  0.45345662  0.78802912  0.42271169     0.02700
C466        C  0.43367983  0.78029443  0.44835062     0.08800
C467        C  0.40645779  0.80060350  0.44532465    -0.04300
H468        H  0.47765988  0.77829592  0.41760482     0.09400
H469        H  0.38635194  0.80326605  0.46192162     0.10600
Cu470      Cu  0.45888973  0.83517222  0.36654484     0.44200
Cu471      Cu  0.38053905  0.85748477  0.40332544     0.42000
Cu472      Cu  0.41062175  0.90084701  0.33431066     0.43900
N473        N  0.97465177  0.86386429  0.32885573    -0.33000
N474        N  0.45652406  0.88791730  0.31718496    -0.27200
C475        C  0.97303131  0.90256193  0.29357181    -0.03300
C476        C  0.00285910  0.88678065  0.28977670     0.08900
C477        C  0.00329732  0.86249037  0.31278910     0.02700
H478        H  0.46384972  0.92312296  0.27995349     0.10300
H479        H  0.02292801  0.84527211  0.31760042     0.09400
N480        N  0.36868651  0.91447149  0.35877102    -0.34400
N481        N  0.35810965  0.89910958  0.38444253    -0.26600
C482        C  0.33385640  0.91689269  0.39762264    -0.01900
C483        C  0.32877170  0.94466835  0.37931518     0.06800
C484        C  0.35129014  0.94224190  0.35481096     0.04800
H485        H  0.32227141  0.91112333  0.42007271     0.10000
H486        H  0.35681356  0.96066835  0.33716659     0.08800
N487        N  0.14077248  0.88635108  0.18299330    -0.25600
N488        N  0.12328854  0.86198015  0.17098946    -0.33500
C489        C  0.09389246  0.86086881  0.18577063     0.02700
C490        C  0.09315595  0.88566277  0.20832809     0.08800
C491        C  0.12310353  0.90144176  0.20558597    -0.04300
H492        H  0.07453507  0.84354069  0.18034539     0.09400
H493        H  0.13149899  0.92241032  0.21913129     0.10600
Cu494      Cu  0.14072939  0.83278873  0.13431451     0.44200
Cu495      Cu  0.18708424  0.89959749  0.16708440     0.42000
Cu496      Cu  0.21891655  0.85622611  0.09849427     0.43900
N497        N  0.16185737  0.80923017  0.09568033    -0.33000
N498        N  0.19012037  0.81742373  0.08236174    -0.27200
C499        C  0.19436100  0.79923420  0.05586219    -0.03300
C500        C  0.16738904  0.77869536  0.05240359     0.08900
C501        C  0.14746228  0.78577900  0.07813313     0.02700
H502        H  0.21433833  0.80256839  0.03923367     0.10300
H503        H  0.12325055  0.77593006  0.08284183     0.09400
N504        N  0.23976120  0.89876519  0.11702570    -0.34400
N505        N  0.22865309  0.91416852  0.14251976    -0.26600
C506        C  0.24499183  0.94263525  0.14601702    -0.01900
C507        C  0.26731610  0.94543033  0.12138561     0.06800
C508        C  0.26325872  0.91718145  0.10350309     0.04800
H509        H  0.23885184  0.96117983  0.16342028     0.10000
H510        H  0.27499520  0.91143445  0.08110692     0.08800
N511        N  0.97176066  0.63561941  0.17220412    -0.25600
N512        N  0.45360329  0.61241799  0.18521908    -0.33500
C513        C  0.97056459  0.59872522  0.20923900     0.02700
C514        C  0.00070961  0.61426621  0.21179555     0.08800
C515        C  0.00080193  0.63742615  0.18775037    -0.04300
H516        H  0.46171132  0.57864866  0.22364887     0.09400
H517        H  0.02066613  0.65381467  0.18157962     0.10600
Cu518      Cu  0.40761422  0.59856483  0.16829524     0.44200
Cu519      Cu  0.45624773  0.66183060  0.13271299     0.42000
Cu520      Cu  0.37754614  0.63989309  0.09719814     0.43900
N521        N  0.36637867  0.58368170  0.14286436    -0.33000
N522        N  0.35578660  0.59852233  0.11681209    -0.27200
C523        C  0.33238524  0.57995409  0.10311888    -0.03300
C524        C  0.32787057  0.55214216  0.12138951     0.08900
C525        C  0.34980315  0.55538520  0.14649183     0.02700
H526        H  0.32114644  0.58520679  0.08030407     0.10300
H527        H  0.35556835  0.53720797  0.16435052     0.09400
N528        N  0.40837520  0.67581472  0.07889581    -0.34400
N529        N  0.43710570  0.68320622  0.09193063    -0.26600
C530        C  0.45279148  0.70463499  0.07319435    -0.01900
C531        C  0.43313627  0.71131509  0.04705404     0.06800
C532        C  0.40504971  0.69257173  0.05142653     0.04800
H533        H  0.47737066  0.71372467  0.07772129     0.10000
H534        H  0.38465786  0.68965795  0.03503266     0.08800
C535        C  0.01809892  0.71358231  0.24416255     0.14400
C536        C  0.04699116  0.73202287  0.25027999     0.01300
C537        C  0.07600735  0.71393449  0.25680144     0.16300
C538        C  0.07679822  0.67997048  0.25258317     0.25700
C539        C  0.04738387  0.66183419  0.25070571    -0.40600
C540        C  0.01773289  0.67963640  0.24863618     0.32800
C541        C  0.04700476  0.76918789  0.24977124     0.01400
F542        F  0.10360447  0.72833110  0.26845998    -0.12900
F543        F  0.48811926  0.66455813  0.25093379    -0.14600
C544        C  0.01812320  0.78765924  0.25577297     0.16300
C545        C  0.01775116  0.82160758  0.25136886     0.25700
C546        C  0.04737905  0.83929710  0.24911635    -0.40600
C547        C  0.07678805  0.82123107  0.24719008     0.32700
C548        C  0.07601975  0.78723016  0.24330231     0.14400
F549        F  0.99028655  0.77371961  0.26715000    -0.12900
F550        F  0.10653320  0.83617621  0.24896471    -0.13400
F551        F  0.98818057  0.83692705  0.24958846    -0.15700
F552        F  0.10362394  0.77275001  0.23194624    -0.14300
F553        F  0.49022647  0.72754893  0.23265703    -0.14300
F554        F  0.10659077  0.66524077  0.25020507    -0.15700
C555        C  0.31294407  0.52384895  0.28495806     0.14400
C556        C  0.29745750  0.49860189  0.26772955     0.01300
C557        C  0.28220350  0.97294084  0.28439919     0.16300
C558        C  0.28247611  0.97253272  0.31772878     0.25700
C559        C  0.29811381  0.49766340  0.33490792    -0.40600
C560        C  0.31338067  0.52329305  0.31827933     0.32800
C561        C  0.29752555  0.49880918  0.23240886     0.01400
F562        F  0.26645262  0.94864873  0.26834711    -0.12900
F563        F  0.32902070  0.54756459  0.33442571    -0.13500
C564        C  0.31283378  0.97332641  0.21545877     0.16300
C565        C  0.31297629  0.97344448  0.18214196     0.25700
C566        C  0.29762947  0.99889848  0.16521908    -0.40600
C567        C  0.28235072  0.52440062  0.18211894     0.32700
C568        C  0.28239161  0.52443742  0.21545987     0.14400
F569        F  0.32821567  0.94866071  0.23124523    -0.12900
F570        F  0.26695602  0.54896080  0.16622228    -0.13400
F571        F  0.32857609  0.94901217  0.16629127    -0.15700
F572        F  0.26711242  0.54915149  0.23122979    -0.14300
F573        F  0.32815592  0.54872216  0.26946207    -0.14300
F574        F  0.26686433  0.94801223  0.33334561    -0.15700
C575        C  0.33696147  0.76216048  0.02337594     0.14400
C576        C  0.31872875  0.74657313  0.49922734     0.01300
C577        C  0.33543143  0.73092676  0.47420144     0.16300
C578        C  0.36988140  0.73070921  0.47347902     0.25700
C579        C  0.38803770  0.74616062  0.49770092    -0.40600
C580        C  0.37139306  0.76198680  0.02256775     0.32800
C581        C  0.28230137  0.74659265  0.50017929     0.01400
F582        F  0.31833107  0.71529833  0.45087458    -0.12900
F583        F  0.38863812  0.77746825  0.04585766    -0.13500
C584        C  0.26408569  0.76294586  0.47654698     0.16300
C585        C  0.22965165  0.76283958  0.47737081     0.25700
C586        C  0.21298129  0.74633527  0.50174976    -0.40600
C587        C  0.23113156  0.73008398  0.02544016     0.32700
C588        C  0.26558334  0.73022005  0.02469292     0.14400
F589        F  0.27971685  0.77939204  0.45296778    -0.12900
F590        F  0.21535536  0.71356502  0.04885929    -0.13400
F591        F  0.21243528  0.77906300  0.45458543    -0.15700
F592        F  0.28267053  0.71381093  0.04747595    -0.14300
F593        F  0.32135024  0.77792870  0.04745669    -0.14300
F594        F  0.38565031  0.71491087  0.44953243    -0.15700
N595        N  0.17759850  0.74561090  0.00212965    -0.01800
C596        C  0.15750435  0.75872195  0.52455754     0.00800
C597        C  0.12494662  0.75281718  0.51669821    -0.22100
C598        C  0.12498199  0.73594725  0.98841689    -0.22300
C599        C  0.15755793  0.73167910  0.97999552     0.00700
H600        H  0.10334434  0.76064381  0.52964120     0.14500
H601        H  0.10346531  0.72743582  0.97560351     0.14500
N602        N  0.42340720  0.74533708  0.99732742    -0.01800
C603        C  0.44337673  0.73041343  0.51887573     0.00800
C604        C  0.47597224  0.73494577  0.51065767    -0.22100
C605        C  0.47607314  0.75299411  0.98311180    -0.22300
C606        C  0.44353707  0.75932926  0.97548575     0.00700
H607        H  0.49745713  0.72588023  0.52314076     0.14500
H608        H  0.49769604  0.76126514  0.97051052     0.14500
N609        N  0.29756970  0.99882716  0.63091317    -0.01800
C610        C  0.28546482  0.97504772  0.61148663     0.00800
C611        C  0.29008150  0.98352816  0.57998326    -0.22100
C612        C  0.30518082  0.51364913  0.57997740    -0.22300
C613        C  0.30973832  0.52242413  0.61148732     0.00700
H614        H  0.28260960  0.96969439  0.55918819     0.14500
H615        H  0.31269685  0.52728124  0.55916933     0.14500
N616        N  0.29780399  0.49757701  0.86920709    -0.01800
C617        C  0.30971425  0.97391358  0.88883237     0.00800
C618        C  0.30450178  0.98252733  0.92025616    -0.22100
C619        C  0.28930257  0.51261346  0.91999229    -0.22300
C620        C  0.28528100  0.52122548  0.88841386     0.00700
H621        H  0.31183277  0.96890796  0.94119528     0.14500
H622        H  0.28155150  0.52643193  0.94064865     0.14500
N623        N  0.04757140  0.62613106  0.75094854    -0.01800
C624        C  0.02720157  0.60549552  0.73442844     0.00800
C625        C  0.03442752  0.57321727  0.74117753    -0.22100
C626        C  0.06043195  0.57342963  0.76194074    -0.22300
C627        C  0.06791668  0.60584071  0.76788179     0.00700
H628        H  0.02241628  0.55172992  0.73150361     0.14500
H629        H  0.07248636  0.55213247  0.77192260     0.14500
N630        N  0.04753357  0.87492965  0.74871717    -0.01800
C631        C  0.02816897  0.89558953  0.76611838     0.00800
C632        C  0.03482294  0.92783614  0.75873873    -0.22100
C633        C  0.05948416  0.92750665  0.73665396    -0.22300
C634        C  0.06672292  0.89505755  0.73062195     0.00700
H635        H  0.02332408  0.94938009  0.76880446     0.14500
H636        H  0.07088832  0.94874190  0.72597110     0.14500
N637        N  0.12586771  0.63728384  0.82743593    -0.25600
N638        N  0.14325795  0.61340119  0.81450397    -0.33500
C639        C  0.12526126  0.59915449  0.79148244     0.02700
C640        C  0.09520247  0.61498262  0.78951504     0.08800
C641        C  0.09625748  0.63890474  0.81290656    -0.04300
H642        H  0.13333822  0.57847239  0.77738315     0.09400
H643        H  0.07682838  0.65575011  0.81929932     0.10600
Cu644      Cu  0.18946327  0.59908812  0.83055270     0.44200
Cu645      Cu  0.14309854  0.66462302  0.86556966     0.42000
Cu646      Cu  0.22139706  0.64105686  0.90058675     0.43900
N647        N  0.23041571  0.58346815  0.85601602    -0.33000
N648        N  0.24159448  0.59856433  0.88174477    -0.27200
C649        C  0.26434370  0.57954047  0.89581424    -0.03300
C650        C  0.26785612  0.55117103  0.87810989     0.08900
C651        C  0.24601308  0.55453180  0.85295297     0.02700
H652        H  0.27584123  0.58498032  0.91848638     0.10300
H653        H  0.23965226  0.53611899  0.83545050     0.09400
N654        N  0.19175917  0.67793819  0.91884987    -0.34400
N655        N  0.16318974  0.68606933  0.90591783    -0.26600
C656        C  0.14795478  0.70761259  0.92494423    -0.01900
C657        C  0.16772259  0.71351396  0.95119607     0.06800
C658        C  0.19542573  0.69427428  0.94655096     0.04800
H659        H  0.12342493  0.71700416  0.92071916     0.10000
H660        H  0.21558733  0.69049488  0.96304271     0.08800
N661        N  0.41037871  0.81924296  0.91912387    -0.25600
N662        N  0.43869665  0.81155557  0.90557985    -0.33500
C663        C  0.45345616  0.78803005  0.92271450     0.02700
C664        C  0.43367902  0.78029702  0.94835160     0.08800
C665        C  0.40645760  0.80060475  0.94532473    -0.04300
H666        H  0.47765072  0.77830005  0.91760981     0.09400
H667        H  0.38635343  0.80326864  0.96191675     0.10600
Cu668      Cu  0.45889118  0.83517251  0.86654573     0.44200
Cu669      Cu  0.38053927  0.85748424  0.90332467     0.42000
Cu670      Cu  0.41062331  0.90084709  0.83431107     0.43900
N671        N  0.97465119  0.86386487  0.82885628    -0.33000
N672        N  0.45652438  0.88791871  0.81718423    -0.27200
C673        C  0.97303231  0.90256094  0.79357226    -0.03300
C674        C  0.00285937  0.88677976  0.78977739     0.08900
C675        C  0.00329792  0.86248935  0.81278985     0.02700
H676        H  0.46385178  0.92312327  0.77995176     0.10300
H677        H  0.02292263  0.84527416  0.81760226     0.09400
N678        N  0.36868733  0.91447132  0.85877058    -0.34400
N679        N  0.35810977  0.89910809  0.88444279    -0.26600
C680        C  0.33385684  0.91689031  0.89762318    -0.01900
C681        C  0.32877115  0.94466681  0.87931694     0.06800
C682        C  0.35128996  0.94224102  0.85481204     0.04800
H683        H  0.32227018  0.91111871  0.92007712     0.10000
H684        H  0.35681255  0.96066802  0.83716938     0.08800
N685        N  0.14077430  0.88635253  0.68299415    -0.25600
N686        N  0.12328744  0.86197859  0.67098929    -0.33500
C687        C  0.09389316  0.86086969  0.68577085     0.02700
C688        C  0.09315679  0.88566440  0.70832874     0.08800
C689        C  0.12310611  0.90144292  0.70558538    -0.04300
H690        H  0.07453046  0.84353942  0.68034670     0.09400
H691        H  0.13150432  0.92241743  0.71913443     0.10600
Cu692      Cu  0.14073031  0.83278830  0.63431582     0.44200
Cu693      Cu  0.18708481  0.89959716  0.66708535     0.42000
Cu694      Cu  0.21891672  0.85622614  0.59849433     0.43900
N695        N  0.16185853  0.80922964  0.59568159    -0.33000
N696        N  0.19011957  0.81742267  0.58236291    -0.27200
C697        C  0.19435922  0.79923225  0.55586309    -0.03300
C698        C  0.16738823  0.77869426  0.55240543     0.08900
C699        C  0.14746204  0.78577786  0.57813506     0.02700
H700        H  0.21433197  0.80256533  0.53923652     0.10300
H701        H  0.12325221  0.77593008  0.58284424     0.09400
N702        N  0.23976003  0.89876528  0.61702768    -0.34400
N703        N  0.22865317  0.91416909  0.64252100    -0.26600
C704        C  0.24499165  0.94263590  0.64601816    -0.01900
C705        C  0.26731529  0.94543082  0.62138695     0.06800
C706        C  0.26325770  0.91718156  0.60350449     0.04800
H707        H  0.23885066  0.96118358  0.66342432     0.10000
H708        H  0.27498989  0.91143523  0.58111436     0.08800
N709        N  0.97175719  0.63561889  0.67220510    -0.25600
N710        N  0.45360161  0.61241749  0.68522097    -0.33500
C711        C  0.97056423  0.59872634  0.70923958     0.02700
C712        C  0.00070866  0.61426782  0.71179465     0.08800
C713        C  0.00080005  0.63742664  0.68775027    -0.04300
H714        H  0.46171076  0.57864685  0.72365224     0.09400
H715        H  0.02066053  0.65381399  0.68157817     0.10600
Cu716      Cu  0.40761320  0.59856594  0.66829643     0.44200
Cu717      Cu  0.45624634  0.66183147  0.63271417     0.42000
Cu718      Cu  0.37754621  0.63989316  0.59719800     0.43900
N719        N  0.36637834  0.58368080  0.64286640    -0.33000
N720        N  0.35578555  0.59852369  0.61680964    -0.27200
C721        C  0.33238605  0.57995597  0.60311678    -0.03300
C722        C  0.32786970  0.55214255  0.62138807     0.08900
C723        C  0.34980241  0.55538617  0.64649178     0.02700
H724        H  0.32114387  0.58520989  0.58029332     0.10300
H725        H  0.35556670  0.53720336  0.66435486     0.09400
N726        N  0.40837440  0.67581501  0.57889630    -0.34400
N727        N  0.43710481  0.68320701  0.59193192    -0.26600
C728        C  0.45279122  0.70463557  0.57319626    -0.01900
C729        C  0.43313850  0.71131604  0.54705566     0.06800
C730        C  0.40505048  0.69257258  0.55142696     0.04800
H731        H  0.47737645  0.71372679  0.57772525     0.10000
H732        H  0.38466393  0.68965990  0.53503607     0.08800
C733        C  0.01809871  0.71358261  0.74416188     0.14400
C734        C  0.04699105  0.73202277  0.75027919     0.01300
C735        C  0.07600720  0.71393467  0.75680086     0.16300
C736        C  0.07679797  0.67997016  0.75258288     0.25700
C737        C  0.04738344  0.66183497  0.75070557    -0.40600
C738        C  0.01773252  0.67963634  0.74863601     0.32800
C739        C  0.04700477  0.76918810  0.74977032     0.01400
F740        F  0.10360444  0.72833114  0.76845921    -0.12900
F741        F  0.48811890  0.66455848  0.75093388    -0.14600
C742        C  0.01812328  0.78765940  0.75577202     0.16300
C743        C  0.01775156  0.82160803  0.75136799     0.25700
C744        C  0.04737945  0.83929707  0.74911544    -0.40600
C745        C  0.07678836  0.82123123  0.74718928     0.32700
C746        C  0.07601969  0.78723012  0.74330151     0.14400
F747        F  0.99028662  0.77371989  0.76714897    -0.12900
F748        F  0.10653356  0.83617591  0.74896387    -0.13400
F749        F  0.98818089  0.83692729  0.74958759    -0.15700
F750        F  0.10362383  0.77274991  0.73194546    -0.14300
F751        F  0.49022645  0.72754914  0.73265619    -0.14300
F752        F  0.10659043  0.66524057  0.75020488    -0.15700
C753        C  0.31294303  0.52384957  0.78495786     0.14400
C754        C  0.29745750  0.49860186  0.76772926     0.01300
C755        C  0.28220473  0.97294044  0.78439906     0.16300
C756        C  0.28247734  0.97253205  0.81772856     0.25700
C757        C  0.29811410  0.49766310  0.83490774    -0.40600
C758        C  0.31337972  0.52329343  0.81827910     0.32800
C759        C  0.29752565  0.49880904  0.73240848     0.01400
F760        F  0.26645496  0.94864772  0.76834685    -0.12900
F761        F  0.32901878  0.54756559  0.83442550    -0.13500
C762        C  0.31283414  0.97332707  0.71545862     0.16300
C763        C  0.31297654  0.97344511  0.68214151     0.25700
C764        C  0.29762927  0.99889861  0.66521979    -0.40600
C765        C  0.28235035  0.52440002  0.68211830     0.32700
C766        C  0.28239106  0.52443689  0.71545957     0.14400
F767        F  0.32821670  0.94866177  0.73124473    -0.12900
F768        F  0.26695509  0.54895993  0.66622224    -0.13400
F769        F  0.32857684  0.94901310  0.66629115    -0.15700
F770        F  0.26711121  0.54915072  0.73122925    -0.14300
F771        F  0.32815376  0.54872362  0.76946199    -0.14300
F772        F  0.26686653  0.94801083  0.83334515    -0.15700
C773        C  0.33696109  0.76216106  0.52337547     0.14400
C774        C  0.31872913  0.74657281  0.99922728     0.01300
C775        C  0.33543211  0.73092702  0.97420119     0.16300
C776        C  0.36988178  0.73070973  0.97347872     0.25700
C777        C  0.38803785  0.74616104  0.99770112    -0.40600
C778        C  0.37139302  0.76198725  0.52256740     0.32800
C779        C  0.28230216  0.74659239  0.00017912     0.01400
F780        F  0.31833211  0.71529876  0.95087386    -0.12900
F781        F  0.38863775  0.77746912  0.54585692    -0.13500
C782        C  0.26408643  0.76294593  0.97654656     0.16300
C783        C  0.22965285  0.76283964  0.97737039     0.25700
C784        C  0.21298180  0.74633494  0.00174897    -0.40600
C785        C  0.23113072  0.73008409  0.52544049     0.32700
C786        C  0.26558290  0.73022040  0.52469301     0.14400
F787        F  0.27971764  0.77939217  0.95296725    -0.12900
F788        F  0.21535540  0.71356489  0.54885977    -0.13400
F789        F  0.21243576  0.77906300  0.95458525    -0.15700
F790        F  0.28267028  0.71381161  0.54747585    -0.14300
F791        F  0.32134988  0.77792974  0.54745604    -0.14300
F792        F  0.38565127  0.71491207  0.94953213    -0.15700
N793        N  0.67759774  0.24561086  0.50212994    -0.01800
C794        C  0.65750559  0.25872206  0.02455588     0.00800
C795        C  0.62494709  0.25281714  0.01669766    -0.22100
C796        C  0.62498109  0.23594819  0.48841805    -0.22300
C797        C  0.65755814  0.23167985  0.47999666     0.00700
H798        H  0.60334864  0.26064198  0.02963765     0.14500
H799        H  0.60346594  0.22743720  0.47560450     0.14500
N800        N  0.92340731  0.24533662  0.49732711    -0.01800
C801        C  0.94337740  0.23041262  0.01887591     0.00800
C802        C  0.97597243  0.23494590  0.01065838    -0.22100
C803        C  0.97607386  0.25299248  0.48311152    -0.22300
C804        C  0.94353750  0.25932808  0.47548543     0.00700
H805        H  0.99746256  0.22587803  0.02314407     0.14500
H806        H  0.99769641  0.26126314  0.47051002     0.14500
N807        N  0.79757003  0.49882760  0.13091338    -0.01800
C808        C  0.78546526  0.47504834  0.11148667     0.00800
C809        C  0.79008224  0.48352966  0.07998285    -0.22100
C810        C  0.80517910  0.01364684  0.07997862    -0.22300
C811        C  0.80973745  0.02242265  0.11148839     0.00700
H812        H  0.78260992  0.46969513  0.05918535     0.14500
H813        H  0.81269252  0.02727500  0.05917464     0.14500
N814        N  0.79780382  0.99757708  0.36920822    -0.01800
C815        C  0.80971351  0.47391452  0.38883192     0.00800
C816        C  0.80450151  0.48252760  0.42025463    -0.22100
C817        C  0.78930242  0.01261469  0.41999226    -0.22300
C818        C  0.78528140  0.02122603  0.38841486     0.00700
H819        H  0.81183017  0.46891211  0.44118733     0.14500
H820        H  0.78155289  0.02643070  0.44064734     0.14500
N821        N  0.54757135  0.12613053  0.25094833    -0.01800
C822        C  0.52720231  0.10549558  0.23442903     0.00800
C823        C  0.53442787  0.07321669  0.24117797    -0.22100
C824        C  0.56043234  0.07342952  0.26194120    -0.22300
C825        C  0.56791661  0.10584056  0.26788223     0.00700
H826        H  0.52241831  0.05173174  0.23150574     0.14500
H827        H  0.57248577  0.05213221  0.27192238     0.14500
N828        N  0.54753335  0.37492951  0.24871760    -0.01800
C829        C  0.52816824  0.39559119  0.26611857     0.00800
C830        C  0.53482308  0.42783692  0.25873879    -0.22100
C831        C  0.55948412  0.42750682  0.23665416    -0.22300
C832        C  0.56672220  0.39505764  0.23062247     0.00700
H833        H  0.52332383  0.44938372  0.26880471     0.14500
H834        H  0.57088729  0.44873971  0.22597218     0.14500
N835        N  0.62586926  0.13728357  0.32743542    -0.25600
N836        N  0.64325788  0.11340213  0.31450344    -0.33500
C837        C  0.62526039  0.09915536  0.29148175     0.02700
C838        C  0.59520236  0.11498339  0.28951553     0.08800
C839        C  0.59625793  0.13890528  0.31290683    -0.04300
H840        H  0.63333579  0.07847502  0.27738321     0.09400
H841        H  0.57683207  0.15574892  0.31930015     0.10600
Cu842      Cu  0.68946396  0.09908837  0.33055151     0.44200
Cu843      Cu  0.64309902  0.16462397  0.36556957     0.42000
Cu844      Cu  0.72139590  0.14105677  0.40058663     0.43900
N845        N  0.73041622  0.08346806  0.35601575    -0.33000
N846        N  0.74159281  0.09856427  0.38174285    -0.27200
C847        C  0.76434253  0.07954114  0.39581435    -0.03300
C848        C  0.76785575  0.05117187  0.37810995     0.08900
C849        C  0.74601405  0.05453126  0.35295274     0.02700
H850        H  0.77583578  0.08498175  0.41848224     0.10300
H851        H  0.73965397  0.03611806  0.33544997     0.09400
N852        N  0.69175844  0.17793893  0.41885066    -0.34400
N853        N  0.66318941  0.18607079  0.40591877    -0.26600
C854        C  0.64795479  0.20761427  0.42494526    -0.01900
C855        C  0.66772203  0.21351502  0.45119722     0.06800
C856        C  0.69542511  0.19427494  0.44655213     0.04800
H857        H  0.62342529  0.21700704  0.42072034     0.10000
H858        H  0.71558616  0.19049542  0.46304380     0.08800
N859        N  0.91037729  0.31924219  0.41912488    -0.25600
N860        N  0.93869540  0.31155432  0.40557957    -0.33500
C861        C  0.95345437  0.28802834  0.42271397     0.02700
C862        C  0.93367735  0.28029559  0.44835214     0.08800
C863        C  0.90645669  0.30060395  0.44532546    -0.04300
H864        H  0.97764574  0.27829899  0.41761012     0.09400
H865        H  0.88634871  0.30326858  0.46192211     0.10600
Cu866      Cu  0.95888998  0.33517165  0.36654526     0.44200
Cu867      Cu  0.88053915  0.35748503  0.40332495     0.42000
Cu868      Cu  0.91062255  0.40084690  0.33431031     0.43900
N869        N  0.47465189  0.36386409  0.32885586    -0.33000
N870        N  0.95652475  0.38791683  0.31718516    -0.27200
C871        C  0.47303099  0.40256186  0.29357220    -0.03300
C872        C  0.50285902  0.38678077  0.28977689     0.08900
C873        C  0.50329751  0.36249035  0.31278908     0.02700
H874        H  0.96385074  0.42312151  0.27995418     0.10300
H875        H  0.52292756  0.34527259  0.31760015     0.09400
N876        N  0.86868639  0.41447089  0.35877155    -0.34400
N877        N  0.85811135  0.39910915  0.38444067    -0.26600
C878        C  0.83385722  0.41689192  0.39762240    -0.01900
C879        C  0.82877207  0.44466762  0.37931523     0.06800
C880        C  0.85128947  0.44224180  0.35481152     0.04800
H881        H  0.82227843  0.41112253  0.42006389     0.10000
H882        H  0.85681306  0.46066952  0.33716580     0.08800
N883        N  0.64077282  0.38635177  0.18299378    -0.25600
N884        N  0.62328673  0.36197920  0.17098968    -0.33500
C885        C  0.59389194  0.36086939  0.18577143     0.02700
C886        C  0.59315543  0.38566303  0.20832884     0.08800
C887        C  0.62310413  0.40144207  0.20558594    -0.04300
H888        H  0.57452831  0.34353833  0.18034642     0.09400
H889        H  0.63149946  0.42241098  0.21913170     0.10600
Cu890      Cu  0.64072891  0.33278849  0.13431471     0.44200
Cu891      Cu  0.68708414  0.39959737  0.16708437     0.42000
Cu892      Cu  0.71891627  0.35622578  0.09849428     0.43900
N893        N  0.66185614  0.30922910  0.09568009    -0.33000
N894        N  0.69011892  0.31742315  0.08236256    -0.27200
C895        C  0.69435976  0.29923331  0.05586281    -0.03300
C896        C  0.66738779  0.27869453  0.05240413     0.08900
C897        C  0.64746117  0.28577788  0.07813291     0.02700
H898        H  0.71433255  0.30256683  0.03923795     0.10300
H899        H  0.62324608  0.27592702  0.08284145     0.09400
N900        N  0.73976127  0.39876516  0.11702565    -0.34400
N901        N  0.72865314  0.41416848  0.14251970    -0.26600
C902        C  0.74499190  0.44263526  0.14601693    -0.01900
C903        C  0.76731622  0.44543054  0.12138518     0.06800
C904        C  0.76325878  0.41718151  0.10350302     0.04800
H905        H  0.73885196  0.46117969  0.16342027     0.10000
H906        H  0.77499532  0.41143439  0.08110684     0.08800
N907        N  0.47175843  0.13561782  0.17220458    -0.25600
N908        N  0.95360327  0.11241782  0.18521928    -0.33500
C909        C  0.47056416  0.09872447  0.20923955     0.02700
C910        C  0.50070825  0.11426558  0.21179571     0.08800
C911        C  0.50080051  0.13742546  0.18775054    -0.04300
H912        H  0.96171216  0.07864978  0.22364832     0.09400
H913        H  0.52065944  0.15381093  0.18157975     0.10600
Cu914      Cu  0.90761452  0.09856493  0.16829534     0.44200
Cu915      Cu  0.95624803  0.16183084  0.13271281     0.42000
Cu916      Cu  0.87754654  0.13989335  0.09719843     0.43900
N917        N  0.86637835  0.08368171  0.14286400    -0.33000
N918        N  0.85578684  0.09852241  0.11681246    -0.27200
C919        C  0.83238530  0.07995450  0.10311832    -0.03300
C920        C  0.82787016  0.05214248  0.12138841     0.08900
C921        C  0.84980235  0.05538501  0.14649104     0.02700
H922        H  0.82114766  0.08520783  0.08030390     0.10300
H923        H  0.85556682  0.03720862  0.16434830     0.09400
N924        N  0.90837466  0.17581446  0.07889566    -0.34400
N925        N  0.93710737  0.18320720  0.09193049    -0.26600
C926        C  0.95279200  0.20463533  0.07319412    -0.01900
C927        C  0.93313705  0.21131510  0.04705351     0.06800
C928        C  0.90504944  0.19257123  0.05142674     0.04800
H929        H  0.97737904  0.21372897  0.07772124     0.10000
H930        H  0.88465807  0.18965802  0.03503430     0.08800
C931        C  0.51809882  0.21358245  0.24416253     0.14400
C932        C  0.54699106  0.23202276  0.25027997     0.01300
C933        C  0.57600714  0.21393455  0.25680131     0.16300
C934        C  0.57679819  0.17997032  0.25258302     0.25700
C935        C  0.54738376  0.16183463  0.25070557    -0.40600
C936        C  0.51773281  0.17963627  0.24863615     0.32800
C937        C  0.54700471  0.26918797  0.24977133     0.01400
F938        F  0.60360417  0.22833103  0.26845992    -0.12900
F939        F  0.98811934  0.16455828  0.25093372    -0.14600
C940        C  0.51812315  0.28765928  0.25577308     0.16300
C941        C  0.51775127  0.32160778  0.25136897     0.25700
C942        C  0.54737902  0.33929732  0.24911652    -0.40600
C943        C  0.57678803  0.32123130  0.24719026     0.32700
C944        C  0.57601966  0.28723022  0.24330246     0.14400
F945        F  0.49028642  0.27371970  0.26715002    -0.12900
F946        F  0.60653314  0.33617628  0.24896486    -0.13400
F947        F  0.48818069  0.33692713  0.24958844    -0.15700
F948        F  0.60362398  0.27275013  0.23194646    -0.14300
F949        F  0.99022674  0.22754896  0.23265710    -0.14300
F950        F  0.60659087  0.16524106  0.25020497    -0.15700
C951        C  0.81294404  0.02384891  0.28495792     0.14400
C952        C  0.79745750  0.99860167  0.26772950     0.01300
C953        C  0.78220373  0.47294118  0.28439915     0.16300
C954        C  0.78247620  0.47253289  0.31772860     0.25700
C955        C  0.79811393  0.99766338  0.33490791    -0.40600
C956        C  0.81338058  0.02329289  0.31827919     0.32800
C957        C  0.79752557  0.99880896  0.23240871     0.01400
F958        F  0.76645284  0.44864910  0.26834716    -0.12900
F959        F  0.82902046  0.04756448  0.33442565    -0.13500
C960        C  0.81283386  0.47332651  0.21545877     0.16300
C961        C  0.81297615  0.47344477  0.18214176     0.25700
C962        C  0.79762934  0.49889841  0.16521956    -0.40600
C963        C  0.78235082  0.02440050  0.18211866     0.32700
C964        C  0.78239172  0.02443709  0.21545991     0.14400
F965        F  0.82821573  0.44866104  0.23124508    -0.12900
F966        F  0.76695616  0.04896072  0.16622243    -0.13400
F967        F  0.82857612  0.44901232  0.16629136    -0.15700
F968        F  0.76711250  0.04915128  0.23122966    -0.14300
F969        F  0.82815577  0.04872204  0.26946197    -0.14300
F970        F  0.76686443  0.44801239  0.33334540    -0.15700
C971        C  0.83696154  0.26216043  0.02337582     0.14400
C972        C  0.81872877  0.24657308  0.49922712     0.01300
C973        C  0.83543152  0.23092672  0.47420131     0.16300
C974        C  0.86988147  0.23070911  0.47347881     0.25700
C975        C  0.88803776  0.24616053  0.49770117    -0.40600
C976        C  0.87139342  0.26198681  0.02256788     0.32800
C977        C  0.78230156  0.24659269  0.50017920     0.01400
F978        F  0.81833113  0.21529808  0.45087434    -0.12900
F979        F  0.88863823  0.27746826  0.04585768    -0.13500
C980        C  0.76408581  0.26294604  0.47654672     0.16300
C981        C  0.72965192  0.26283958  0.47737065     0.25700
C982        C  0.71298148  0.24633518  0.50174953    -0.40600
C983        C  0.73113128  0.23008401  0.02544010     0.32700
C984        C  0.76558313  0.23021999  0.02469292     0.14400
F985        F  0.77971697  0.27939219  0.45296752    -0.12900
F986        F  0.71535538  0.21356482  0.04885930    -0.13400
F987        F  0.71243517  0.27906295  0.45458535    -0.15700
F988        F  0.78267039  0.21381088  0.04747570    -0.14300
F989        F  0.82135021  0.27792874  0.04745668    -0.14300
F990        F  0.88565049  0.21491078  0.44953239    -0.15700
N991        N  0.67759828  0.24561099  0.00212953    -0.01800
C992        C  0.65750481  0.25872173  0.52455686     0.00800
C993        C  0.62494689  0.25281697  0.51669802    -0.22100
C994        C  0.62498130  0.23594793  0.98841785    -0.22300
C995        C  0.65755729  0.23167942  0.97999559     0.00700
H996        H  0.60334675  0.26064187  0.52963856     0.14500
H997        H  0.60346399  0.22743619  0.97560370     0.14500
N998        N  0.92340736  0.24533691  0.99732750    -0.01800
C999        C  0.94337761  0.23041260  0.51887623     0.00800
C1000       C  0.97597202  0.23494479  0.51065858    -0.22100
C1001       C  0.97607387  0.25299417  0.98311161    -0.22300
C1002       C  0.94353783  0.25932934  0.97548508     0.00700
H1003       H  0.99746157  0.22587704  0.52314407     0.14500
H1004       H  0.99769848  0.26126722  0.97050739     0.14500
N1005       N  0.79756977  0.49882704  0.63091220    -0.01800
C1006       C  0.78546555  0.47504889  0.61148585     0.00800
C1007       C  0.79008254  0.48352984  0.57998144    -0.22100
C1008       C  0.80517981  0.01364713  0.57997741    -0.22300
C1009       C  0.80973815  0.02242354  0.61148749     0.00700
H1010       H  0.78261203  0.46969868  0.55918885     0.14500
H1011       H  0.81269552  0.02727842  0.55916959     0.14500
N1012       N  0.79780432  0.99757643  0.86920755    -0.01800
C1013       C  0.80971454  0.47391402  0.88883193     0.00800
C1014       C  0.80450212  0.48252669  0.92025520    -0.22100
C1015       C  0.78930262  0.01261400  0.91999158    -0.22300
C1016       C  0.78528138  0.02122536  0.88841338     0.00700
H1017       H  0.81183229  0.46890869  0.94119315     0.14500
H1018       H  0.78155239  0.02642989  0.94064570     0.14500
N1019       N  0.54757089  0.12613102  0.75094834    -0.01800
C1020       C  0.52720204  0.10549481  0.73442957     0.00800
C1021       C  0.53442905  0.07321655  0.74117905    -0.22100
C1022       C  0.56043351  0.07343021  0.76194213    -0.22300
C1023       C  0.56791760  0.10584082  0.76788247     0.00700
H1024       H  0.52241974  0.05173080  0.73150674     0.14500
H1025       H  0.57249003  0.05213156  0.77192569     0.14500
N1026       N  0.54753329  0.37492992  0.74871731    -0.01800
C1027       C  0.52816937  0.39558967  0.76611804     0.00800
C1028       C  0.53482316  0.42783617  0.75873861    -0.22100
C1029       C  0.55948432  0.42750630  0.73665360    -0.22300
C1030       C  0.56672218  0.39505683  0.73062169     0.00700
H1031       H  0.52332692  0.44937817  0.76880247     0.14500
H1032       H  0.57088627  0.44873955  0.72597230     0.14500
N1033       N  0.62586778  0.13728386  0.82743595    -0.25600
N1034       N  0.64325807  0.11340126  0.81450402    -0.33500
C1035       C  0.62526145  0.09915459  0.79148252     0.02700
C1036       C  0.59520270  0.11498329  0.78951516     0.08800
C1037       C  0.59625760  0.13890487  0.81290671    -0.04300
H1038       H  0.63333829  0.07847247  0.77738324     0.09400
H1039       H  0.57682835  0.15575014  0.81929945     0.10600
Cu1040     Cu  0.68946324  0.09908826  0.83055268     0.44200
Cu1041     Cu  0.64309827  0.16462295  0.86556933     0.42000
Cu1042     Cu  0.72139701  0.14105678  0.90058676     0.43900
N1043       N  0.73041526  0.08346832  0.85601571    -0.33000
N1044       N  0.74159400  0.09856427  0.88174408    -0.27200
C1045       C  0.76434317  0.07954087  0.89581393    -0.03300
C1046       C  0.76785588  0.05117144  0.87810991     0.08900
C1047       C  0.74601263  0.05453172  0.85295242     0.02700
H1048       H  0.77584095  0.08498213  0.91848731     0.10300
H1049       H  0.73965230  0.03612077  0.83545101     0.09400
N1050       N  0.69175650  0.17793887  0.91884828    -0.34400
N1051       N  0.66319025  0.18606893  0.90591770    -0.26600
C1052       C  0.64795405  0.20761324  0.92494443    -0.01900
C1053       C  0.66772192  0.21351421  0.95119552     0.06800
C1054       C  0.69542380  0.19427543  0.94655029     0.04800
H1055       H  0.62343186  0.21700146  0.92071988     0.10000
H1056       H  0.71558277  0.19049624  0.96303877     0.08800
N1057       N  0.91037945  0.31924249  0.91912367    -0.25600
N1058       N  0.93869773  0.31155534  0.90557934    -0.33500
C1059       C  0.95345744  0.28802975  0.92271373     0.02700
C1060       C  0.93367980  0.28029622  0.94835134     0.08800
C1061       C  0.90645886  0.30060382  0.94532411    -0.04300
H1062       H  0.97765134  0.27829995  0.91760888     0.09400
H1063       H  0.88635355  0.30326712  0.96191748     0.10600
Cu1064     Cu  0.95889152  0.33517271  0.86654535     0.44200
Cu1065     Cu  0.88053910  0.35748427  0.90332479     0.42000
Cu1066     Cu  0.91062334  0.40084683  0.83431124     0.43900
N1067       N  0.47465134  0.36386479  0.82885639    -0.33000
N1068       N  0.95652569  0.38791731  0.81718487    -0.27200
C1069       C  0.47303232  0.40256091  0.79357236    -0.03300
C1070       C  0.50285921  0.38678001  0.78977743     0.08900
C1071       C  0.50329798  0.36248935  0.81278988     0.02700
H1072       H  0.96385065  0.42312414  0.77995201     0.10300
H1073       H  0.52292295  0.34527406  0.81760220     0.09400
N1074       N  0.86868775  0.41447152  0.85877004    -0.34400
N1075       N  0.85810935  0.39910819  0.88444327    -0.26600
C1076       C  0.83385661  0.41689149  0.89762215    -0.01900
C1077       C  0.82877216  0.44466808  0.87931477     0.06800
C1078       C  0.85129157  0.44224116  0.85481071     0.04800
H1079       H  0.82226961  0.41112201  0.92007393     0.10000
H1080       H  0.85681594  0.46067147  0.83716320     0.08800
N1081       N  0.64077336  0.38635213  0.68299414    -0.25600
N1082       N  0.62328932  0.36198004  0.67098944    -0.33500
C1083       C  0.59389345  0.36086920  0.68577040     0.02700
C1084       C  0.59315660  0.38566387  0.70832816     0.08800
C1085       C  0.62310426  0.40144240  0.70558604    -0.04300
H1086       H  0.57453769  0.34354251  0.68034617     0.09400
H1087       H  0.63150101  0.42241531  0.71913494     0.10600
Cu1088     Cu  0.64073054  0.33278827  0.63431550     0.44200
Cu1089     Cu  0.68708515  0.39959764  0.66708523     0.42000
Cu1090     Cu  0.71891675  0.35622604  0.59849428     0.43900
N1091       N  0.66185870  0.30922922  0.59568071    -0.33000
N1092       N  0.69011981  0.31742255  0.58236239    -0.27200
C1093       C  0.69435988  0.29923234  0.55586241    -0.03300
C1094       C  0.66738867  0.27869406  0.55240478     0.08900
C1095       C  0.64746271  0.28577746  0.57813396     0.02700
H1096       H  0.71433211  0.30256574  0.53923617     0.10300
H1097       H  0.62325215  0.27592916  0.58284243     0.09400
N1098       N  0.73976111  0.39876543  0.61702611    -0.34400
N1099       N  0.72865394  0.41416931  0.64252008    -0.26600
C1100       C  0.74499289  0.44263585  0.64601689    -0.01900
C1101       C  0.76731664  0.44543091  0.62138465     0.06800
C1102       C  0.76325863  0.41718176  0.60350306     0.04800
H1103       H  0.73885300  0.46118272  0.66342239     0.10000
H1104       H  0.77499298  0.41143512  0.58111003     0.08800
N1105       N  0.47175932  0.13562028  0.67220484    -0.25600
N1106       N  0.95360222  0.11241875  0.68522008    -0.33500
C1107       C  0.47056278  0.09872575  0.70923905     0.02700
C1108       C  0.50070875  0.11426667  0.71179552     0.08800
C1109       C  0.50080051  0.13742618  0.68775085    -0.04300
H1110       H  0.96170811  0.07864503  0.72365264     0.09400
H1111       H  0.52066842  0.15381737  0.68157896     0.10600
Cu1112     Cu  0.90761305  0.09856593  0.66829657     0.44200
Cu1113     Cu  0.95624657  0.16183190  0.63271370     0.42000
Cu1114     Cu  0.87754657  0.13989335  0.59719819     0.43900
N1115       N  0.86637834  0.08368057  0.64286683    -0.33000
N1116       N  0.85578640  0.09852335  0.61681155    -0.27200
C1117       C  0.83238636  0.07995534  0.60311835    -0.03300
C1118       C  0.82787035  0.05214165  0.62138921     0.08900
C1119       C  0.84980254  0.05538542  0.64649239     0.02700
H1120       H  0.82114688  0.08520855  0.58030051     0.10300
H1121       H  0.85556730  0.03720237  0.66435619     0.09400
N1122       N  0.90837440  0.17581548  0.57889524    -0.34400
N1123       N  0.93710641  0.18320825  0.59193090    -0.26600
C1124       C  0.95279158  0.20463660  0.57319482    -0.01900
C1125       C  0.93313687  0.21131620  0.54705388     0.06800
C1126       C  0.90504964  0.19257214  0.55142631     0.04800
H1127       H  0.97737714  0.21372965  0.57772221     0.10000
H1128       H  0.88465850  0.18965852  0.53503219     0.08800
C1129       C  0.51809888  0.21358262  0.74416198     0.14400
C1130       C  0.54699090  0.23202275  0.75027919     0.01300
C1131       C  0.57600733  0.21393473  0.75680097     0.16300
C1132       C  0.57679765  0.17997027  0.75258298     0.25700
C1133       C  0.54738371  0.16183499  0.75070568    -0.40600
C1134       C  0.51773226  0.17963627  0.74863605     0.32800
C1135       C  0.54700483  0.26918799  0.74977023     0.01400
F1136       F  0.60360441  0.22833118  0.76845920    -0.12900
F1137       F  0.98811910  0.16455850  0.75093380    -0.14600
C1138       C  0.51812326  0.28765931  0.75577193     0.16300
C1139       C  0.51775151  0.32160783  0.75136796     0.25700
C1140       C  0.54737945  0.33929698  0.74911544    -0.40600
C1141       C  0.57678817  0.32123096  0.74718919     0.32700
C1142       C  0.57601974  0.28722999  0.74330139     0.14400
F1143       F  0.49028650  0.27371998  0.76714883    -0.12900
F1144       F  0.60653325  0.33617590  0.74896388    -0.13400
F1145       F  0.48818107  0.33692734  0.74958757    -0.15700
F1146       F  0.60362402  0.27274993  0.73194538    -0.14300
F1147       F  0.99022641  0.22754913  0.73265608    -0.14300
F1148       F  0.60659031  0.16524064  0.75020493    -0.15700
C1149       C  0.81294308  0.02384947  0.78495786     0.14400
C1150       C  0.79745747  0.99860183  0.76772925     0.01300
C1151       C  0.78220482  0.47294052  0.78439892     0.16300
C1152       C  0.78247743  0.47253191  0.81772829     0.25700
C1153       C  0.79811430  0.99766306  0.83490789    -0.40600
C1154       C  0.81337980  0.02329330  0.81827891     0.32800
C1155       C  0.79752561  0.99880900  0.73240844     0.01400
F1156       F  0.76645497  0.44864760  0.76834684    -0.12900
F1157       F  0.82901908  0.04756550  0.83442536    -0.13500
C1158       C  0.81283428  0.47332692  0.71545846     0.16300
C1159       C  0.81297658  0.47344501  0.68214125     0.25700
C1160       C  0.79762944  0.49889862  0.66521911    -0.40600
C1161       C  0.78235028  0.02440000  0.68211821     0.32700
C1162       C  0.78239108  0.02443677  0.71545952     0.14400
F1163       F  0.82821668  0.44866163  0.73124480    -0.12900
F1164       F  0.76695500  0.04896001  0.66622226    -0.13400
F1165       F  0.82857685  0.44901278  0.66629099    -0.15700
F1166       F  0.76711122  0.04915052  0.73122926    -0.14300
F1167       F  0.82815379  0.04872318  0.76946185    -0.14300
F1168       F  0.76686684  0.44801083  0.83334506    -0.15700
C1169       C  0.83696119  0.26216120  0.52337543     0.14400
C1170       C  0.81872919  0.24657285  0.99922737     0.01300
C1171       C  0.83543210  0.23092698  0.97420108     0.16300
C1172       C  0.86988208  0.23070974  0.97347884     0.25700
C1173       C  0.88803821  0.24616068  0.99770113    -0.40600
C1174       C  0.87139301  0.26198726  0.52256725     0.32800
C1175       C  0.78230198  0.24659238  0.00017911     0.01400
F1176       F  0.81833183  0.21529883  0.95087389    -0.12900
F1177       F  0.88863795  0.27746926  0.54585680    -0.13500
C1178       C  0.76408614  0.26294581  0.97654691     0.16300
C1179       C  0.72965250  0.26283968  0.97737051     0.25700
C1180       C  0.71298143  0.24633507  0.00174930    -0.40600
C1181       C  0.73113103  0.23008402  0.52544037     0.32700
C1182       C  0.76558302  0.23022044  0.52469288     0.14400
F1183       F  0.77971735  0.27939217  0.95296769    -0.12900
F1184       F  0.71535549  0.21356494  0.54885958    -0.13400
F1185       F  0.71243589  0.27906323  0.95458533    -0.15700
F1186       F  0.78267034  0.21381159  0.54747588    -0.14300
F1187       F  0.82134997  0.27792998  0.54745590    -0.14300
F1188       F  0.88565140  0.21491203  0.94953204    -0.15700
N1189       N  0.67759826  0.74561091  0.50212990    -0.01800
C1190       C  0.65750505  0.75872196  0.02455604     0.00800
C1191       C  0.62494642  0.75281708  0.01669756    -0.22100
C1192       C  0.62498108  0.73594787  0.48841750    -0.22300
C1193       C  0.65755733  0.73167981  0.47999555     0.00700
H1194       H  0.60334817  0.76064182  0.02963704     0.14500
H1195       H  0.60346386  0.72743519  0.47560134     0.14500
N1196       N  0.92340648  0.74533623  0.49732793    -0.01800
C1197       C  0.94337757  0.73041252  0.01887604     0.00800
C1198       C  0.97597245  0.73494549  0.01065912    -0.22100
C1199       C  0.97607311  0.75299268  0.48311129    -0.22300
C1200       C  0.94353721  0.75932831  0.47548504     0.00700
H1201       H  0.99746209  0.72587815  0.02314446     0.14500
H1202       H  0.99769740  0.76126479  0.47050748     0.14500
N1203       N  0.79756969  0.99882703  0.13091301    -0.01800
C1204       C  0.78546463  0.97504844  0.11148829     0.00800
C1205       C  0.79008091  0.98352762  0.07998397    -0.22100
C1206       C  0.80518008  0.51364867  0.07997834    -0.22300
C1207       C  0.80973756  0.52242418  0.11148845     0.00700
H1208       H  0.78260997  0.96969594  0.05919219     0.14500
H1209       H  0.81269549  0.52728074  0.05917370     0.14500
N1210       N  0.79780373  0.49757732  0.36920781    -0.01800
C1211       C  0.80971346  0.97391491  0.38883149     0.00800
C1212       C  0.80450143  0.98252787  0.42025501    -0.22100
C1213       C  0.78930234  0.51261438  0.41999209    -0.22300
C1214       C  0.78528083  0.52122596  0.38841388     0.00700
H1215       H  0.81182913  0.96891415  0.44118629     0.14500
H1216       H  0.78155240  0.52643040  0.44064748     0.14500
N1217       N  0.54757133  0.62613079  0.25094838    -0.01800
C1218       C  0.52720184  0.60549490  0.23442932     0.00800
C1219       C  0.53442758  0.57321666  0.24117812    -0.22100
C1220       C  0.56043218  0.57342906  0.26194111    -0.22300
C1221       C  0.56791688  0.60583978  0.26788183     0.00700
H1222       H  0.52241756  0.55173158  0.23150602     0.14500
H1223       H  0.57248587  0.55213149  0.27192181     0.14500
N1224       N  0.54753334  0.87492940  0.24871751    -0.01800
C1225       C  0.52816832  0.89559064  0.26611837     0.00800
C1226       C  0.53482339  0.92783659  0.25873865    -0.22100
C1227       C  0.55948460  0.92750620  0.23665391    -0.22300
C1228       C  0.56672266  0.89505664  0.23062214     0.00700
H1229       H  0.52332411  0.94938357  0.26880484     0.14500
H1230       H  0.57088808  0.94873915  0.22597136     0.14500
N1231       N  0.62586695  0.63728492  0.32743559    -0.25600
N1232       N  0.64325858  0.61340073  0.31450267    -0.33500
C1233       C  0.62526200  0.59915435  0.29148192     0.02700
C1234       C  0.59520257  0.61498210  0.28951436     0.08800
C1235       C  0.59625742  0.63890464  0.31290622    -0.04300
H1236       H  0.63333980  0.57846886  0.27737958     0.09400
H1237       H  0.57682512  0.65575038  0.31929903     0.10600
Cu1238     Cu  0.68946368  0.59908914  0.33055178     0.44200
Cu1239     Cu  0.64309866  0.66462373  0.36556902     0.42000
Cu1240     Cu  0.72139607  0.64105742  0.40058734     0.43900
N1241       N  0.73041578  0.58347032  0.35601615    -0.33000
N1242       N  0.74159321  0.59856505  0.38174349    -0.27200
C1243       C  0.76434278  0.57954109  0.39581388    -0.03300
C1244       C  0.76785533  0.55117256  0.37810963     0.08900
C1245       C  0.74601327  0.55453319  0.35295232     0.02700
H1246       H  0.77583786  0.58498096  0.41848367     0.10300
H1247       H  0.73965303  0.53612411  0.33545163     0.09400
N1248       N  0.69175622  0.67793971  0.41884957    -0.34400
N1249       N  0.66319005  0.68607013  0.40591836    -0.26600
C1250       C  0.64795344  0.70761441  0.42494439    -0.01900
C1251       C  0.66772077  0.71351551  0.45119583     0.06800
C1252       C  0.69542296  0.69427649  0.44655165     0.04800
H1253       H  0.62342810  0.71700409  0.42071883     0.10000
H1254       H  0.71558000  0.69049805  0.46304025     0.08800
N1255       N  0.91037726  0.81924234  0.41912474    -0.25600
N1256       N  0.93869630  0.81155409  0.40557934    -0.33500
C1257       C  0.95345492  0.78802845  0.42271367     0.02700
C1258       C  0.93367734  0.78029545  0.44835214     0.08800
C1259       C  0.90645671  0.80060423  0.44532501    -0.04300
H1260       H  0.97764915  0.77829759  0.41760932     0.09400
H1261       H  0.88634882  0.80326881  0.46192162     0.10600
Cu1262     Cu  0.95888991  0.83517174  0.36654524     0.44200
Cu1263     Cu  0.88053932  0.85748483  0.40332495     0.42000
Cu1264     Cu  0.91062239  0.90084707  0.33431017     0.43900
N1265       N  0.47465047  0.86386545  0.32885543    -0.33000
N1266       N  0.95652393  0.88791792  0.31718447    -0.27200
C1267       C  0.47303091  0.90256232  0.29357166    -0.03300
C1268       C  0.50285811  0.88678151  0.28977656     0.08900
C1269       C  0.50329700  0.86249114  0.31278861     0.02700
H1270       H  0.96385125  0.92312240  0.27995317     0.10300
H1271       H  0.52292183  0.84527736  0.31759922     0.09400
N1272       N  0.86868647  0.91447041  0.35877182    -0.34400
N1273       N  0.85811159  0.89910955  0.38443997    -0.26600
C1274       C  0.83385725  0.91689230  0.39762196    -0.01900
C1275       C  0.82877202  0.94466715  0.37931588     0.06800
C1276       C  0.85128933  0.94224187  0.35481150     0.04800
H1277       H  0.82227785  0.91112245  0.42006511     0.10000
H1278       H  0.85681223  0.96066523  0.33717009     0.08800
N1279       N  0.64077345  0.88635139  0.18299305    -0.25600
N1280       N  0.62328867  0.86197975  0.17098896    -0.33500
C1281       C  0.59389323  0.86086913  0.18577044     0.02700
C1282       C  0.59315683  0.88566324  0.20832832     0.08800
C1283       C  0.62310516  0.90144212  0.20558546    -0.04300
H1284       H  0.57453541  0.84354114  0.18034522     0.09400
H1285       H  0.63150248  0.92241270  0.21913173     0.10600
Cu1286     Cu  0.64072935  0.83278871  0.13431441     0.44200
Cu1287     Cu  0.68708427  0.89959712  0.16708424     0.42000
Cu1288     Cu  0.71891676  0.85622602  0.09849402     0.43900
N1289       N  0.66185826  0.80923030  0.09567997    -0.33000
N1290       N  0.69012009  0.81742351  0.08236181    -0.27200
C1291       C  0.69436014  0.79923308  0.05586194    -0.03300
C1292       C  0.66738772  0.77869493  0.05240433     0.08900
C1293       C  0.64746219  0.78577893  0.07813343     0.02700
H1294       H  0.71433194  0.80256577  0.03923704     0.10300
H1295       H  0.62324842  0.77592964  0.08284304     0.09400
N1296       N  0.73976093  0.89876533  0.11702622    -0.34400
N1297       N  0.72865226  0.91416816  0.14252024    -0.26600
C1298       C  0.74499025  0.94263530  0.14601822    -0.01900
C1299       C  0.76731522  0.94543034  0.12138621     0.06800
C1300       C  0.76325825  0.91718198  0.10350435     0.04800
H1301       H  0.73884971  0.96117824  0.16342109     0.10000
H1302       H  0.77499538  0.91143501  0.08110734     0.08800
N1303       N  0.47175799  0.63561716  0.17220500    -0.25600
N1304       N  0.95360357  0.61241752  0.18521979    -0.33500
C1305       C  0.47056397  0.59872436  0.20923943     0.02700
C1306       C  0.50070781  0.61426564  0.21179576     0.08800
C1307       C  0.50080054  0.63742476  0.18775144    -0.04300
H1308       H  0.96171114  0.57864547  0.22365273     0.09400
H1309       H  0.52065875  0.65380958  0.18158122     0.10600
Cu1310     Cu  0.90761447  0.59856473  0.16829540     0.44200
Cu1311     Cu  0.95624801  0.66183075  0.13271281     0.42000
Cu1312     Cu  0.87754675  0.63989356  0.09719862     0.43900
N1313       N  0.86637862  0.58368004  0.14286592    -0.33000
N1314       N  0.85578579  0.59852399  0.11680993    -0.27200
C1315       C  0.83238579  0.57995712  0.10311682    -0.03300
C1316       C  0.82786855  0.55214325  0.12138736     0.08900
C1317       C  0.84980180  0.55538581  0.14649061     0.02700
H1318       H  0.82114411  0.58521232  0.08029411     0.10300
H1319       H  0.85556552  0.53720215  0.16435219     0.09400
N1320       N  0.90837467  0.67581444  0.07889568    -0.34400
N1321       N  0.93710740  0.68320715  0.09193051    -0.26600
C1322       C  0.95279199  0.70463529  0.07319409    -0.01900
C1323       C  0.93313700  0.71131501  0.04705372     0.06800
C1324       C  0.90504943  0.69257122  0.05142675     0.04800
H1325       H  0.97737909  0.71372898  0.07772109     0.10000
H1326       H  0.88465820  0.68965808  0.03503425     0.08800
C1327       C  0.51809876  0.71358232  0.24416250     0.14400
C1328       C  0.54699089  0.73202289  0.25027994     0.01300
C1329       C  0.57600721  0.71393449  0.25680142     0.16300
C1330       C  0.57679794  0.67997048  0.25258312     0.25700
C1331       C  0.54738379  0.66183417  0.25070569    -0.40600
C1332       C  0.51773259  0.67963635  0.24863612     0.32800
C1333       C  0.54700453  0.76918798  0.24977126     0.01400
F1334       F  0.60360428  0.72833104  0.26845996    -0.12900
F1335       F  0.98811945  0.66455819  0.25093383    -0.14600
C1336       C  0.51812308  0.78765935  0.25577296     0.16300
C1337       C  0.51775094  0.82160780  0.25136890     0.25700
C1338       C  0.54737901  0.83929731  0.24911635    -0.40600
C1339       C  0.57678778  0.82123126  0.24719003     0.32700
C1340       C  0.57601953  0.78723029  0.24330236     0.14400
F1341       F  0.49028642  0.77371961  0.26715001    -0.12900
F1342       F  0.60653312  0.83617620  0.24896466    -0.13400
F1343       F  0.48818040  0.83692714  0.24958851    -0.15700
F1344       F  0.60362365  0.77275007  0.23194634    -0.14300
F1345       F  0.99022671  0.72754889  0.23265708    -0.14300
F1346       F  0.60659062  0.66524079  0.25020506    -0.15700
C1347       C  0.81294427  0.52384889  0.28495802     0.14400
C1348       C  0.79745757  0.49860193  0.26772957     0.01300
C1349       C  0.78220400  0.97294084  0.28439909     0.16300
C1350       C  0.78247650  0.97253252  0.31772855     0.25700
C1351       C  0.79811377  0.49766349  0.33490788    -0.40600
C1352       C  0.81338085  0.52329297  0.31827932     0.32800
C1353       C  0.79752569  0.49880912  0.23240873     0.01400
F1354       F  0.76645329  0.94864848  0.26834711    -0.12900
F1355       F  0.82902115  0.54756424  0.33442575    -0.13500
C1356       C  0.81283351  0.97332610  0.21545877     0.16300
C1357       C  0.81297580  0.97344449  0.18214182     0.25700
C1358       C  0.79762941  0.99889842  0.16521991    -0.40600
C1359       C  0.78235067  0.52440032  0.18211854     0.32700
C1360       C  0.78239165  0.52443699  0.21545979     0.14400
F1361       F  0.82821517  0.94866032  0.23124483    -0.12900
F1362       F  0.76695566  0.54896049  0.16622256    -0.13400
F1363       F  0.82857546  0.94901188  0.16629123    -0.15700
F1364       F  0.76711220  0.54915099  0.23122960    -0.14300
F1365       F  0.82815626  0.54872190  0.26946203    -0.14300
F1366       F  0.76686502  0.94801203  0.33334546    -0.15700
C1367       C  0.83696160  0.76216022  0.02337553     0.14400
C1368       C  0.81872872  0.74657314  0.49922734     0.01300
C1369       C  0.83543166  0.73092673  0.47420135     0.16300
C1370       C  0.86988135  0.73070924  0.47347908     0.25700
C1371       C  0.88803799  0.74616046  0.49770116    -0.40600
C1372       C  0.87139320  0.76198669  0.02256766     0.32800
C1373       C  0.78230164  0.74659268  0.50017928     0.01400
F1374       F  0.81833125  0.71529821  0.45087448    -0.12900
F1375       F  0.88863788  0.77746802  0.04585752    -0.13500
C1376       C  0.76408572  0.76294604  0.47654697     0.16300
C1377       C  0.72965200  0.76283965  0.47737076     0.25700
C1378       C  0.71298114  0.74633512  0.50174944    -0.40600
C1379       C  0.73113129  0.73008397  0.02544016     0.32700
C1380       C  0.76558324  0.73022000  0.02469290     0.14400
F1381       F  0.77971702  0.77939225  0.45296782    -0.12900
F1382       F  0.71535546  0.71356498  0.04885933    -0.13400
F1383       F  0.71243531  0.77906305  0.45458543    -0.15700
F1384       F  0.78267046  0.71381093  0.04747593    -0.14300
F1385       F  0.82135038  0.77792840  0.04745650    -0.14300
F1386       F  0.88565049  0.71491084  0.44953245    -0.15700
N1387       N  0.67759781  0.74561107  0.00212992    -0.01800
C1388       C  0.65750467  0.75872187  0.52455658     0.00800
C1389       C  0.62494679  0.75281676  0.51669754    -0.22100
C1390       C  0.62498088  0.73594776  0.98841767    -0.22300
C1391       C  0.65755690  0.73167947  0.97999591     0.00700
H1392       H  0.60334647  0.76064208  0.52963838     0.14500
H1393       H  0.60346388  0.72743587  0.97560345     0.14500
N1394       N  0.92340742  0.74533682  0.99732770    -0.01800
C1395       C  0.94337769  0.73041264  0.51887661     0.00800
C1396       C  0.97597180  0.73494496  0.51065856    -0.22100
C1397       C  0.97607405  0.75299381  0.98311227    -0.22300
C1398       C  0.94353801  0.75932942  0.97548561     0.00700
H1399       H  0.99746129  0.72587698  0.52314430     0.14500
H1400       H  0.99769745  0.76126560  0.97050974     0.14500
N1401       N  0.79756983  0.99882738  0.63091330    -0.01800
C1402       C  0.78546498  0.97504777  0.61148653     0.00800
C1403       C  0.79008172  0.98352836  0.57998271    -0.22100
C1404       C  0.80518067  0.51364868  0.57997727    -0.22300
C1405       C  0.80973818  0.52242398  0.61148723     0.00700
H1406       H  0.78260866  0.96969235  0.55918628     0.14500
H1407       H  0.81269676  0.52728062  0.55916898     0.14500
N1408       N  0.79780400  0.49757720  0.86920752    -0.01800
C1409       C  0.80971364  0.97391402  0.88883148     0.00800
C1410       C  0.80450175  0.98252719  0.92025473    -0.22100
C1411       C  0.78930286  0.51261327  0.91999267    -0.22300
C1412       C  0.78528122  0.52122510  0.88841398     0.00700
H1413       H  0.81183028  0.96891186  0.94118863     0.14500
H1414       H  0.78155293  0.52642946  0.94064647     0.14500
N1415       N  0.54757125  0.62613114  0.75094851    -0.01800
C1416       C  0.52720151  0.60549502  0.73442872     0.00800
C1417       C  0.53442761  0.57321715  0.74117768    -0.22100
C1418       C  0.56043183  0.57342963  0.76194076    -0.22300
C1419       C  0.56791645  0.60584055  0.76788163     0.00700
H1420       H  0.52241650  0.55172979  0.73150356     0.14500
H1421       H  0.57248663  0.55213248  0.77192253     0.14500
N1422       N  0.54753344  0.87492997  0.74871713    -0.01800
C1423       C  0.52816909  0.89559047  0.76611831     0.00800
C1424       C  0.53482263  0.92783639  0.75873920    -0.22100
C1425       C  0.55948346  0.92750721  0.73665427    -0.22300
C1426       C  0.56672164  0.89505733  0.73062184     0.00700
H1427       H  0.52332449  0.94938014  0.76880459     0.14500
H1428       H  0.57088513  0.94874066  0.72597335     0.14500
N1429       N  0.62586584  0.63728478  0.82743588    -0.25600
N1430       N  0.64325798  0.61339975  0.81450270    -0.33500
C1431       C  0.62526139  0.59915403  0.79148197     0.02700
C1432       C  0.59520168  0.61498249  0.78951419     0.08800
C1433       C  0.59625685  0.63890474  0.81290623    -0.04300
H1434       H  0.63333880  0.57846900  0.77737985     0.09400
H1435       H  0.57682206  0.65575319  0.81929927     0.10600
Cu1436     Cu  0.68946301  0.59908825  0.83055269     0.44200
Cu1437     Cu  0.64309855  0.66462298  0.86556969     0.42000
Cu1438     Cu  0.72139707  0.64105691  0.90058684     0.43900
N1439       N  0.73041567  0.58346894  0.85601688    -0.33000
N1440       N  0.74159399  0.59856418  0.88174427    -0.27200
C1441       C  0.76434347  0.57954054  0.89581482    -0.03300
C1442       C  0.76785556  0.55117120  0.87811072     0.08900
C1443       C  0.74601267  0.55453168  0.85295320     0.02700
H1444       H  0.77583970  0.58498133  0.91848593     0.10300
H1445       H  0.73965156  0.53612155  0.83545179     0.09400
N1446       N  0.69175796  0.67793896  0.91885017    -0.34400
N1447       N  0.66319142  0.68606886  0.90591877    -0.26600
C1448       C  0.64795504  0.70761310  0.92494520    -0.01900
C1449       C  0.66772271  0.71351413  0.95119683     0.06800
C1450       C  0.69542492  0.69427547  0.94655218     0.04800
H1451       H  0.62343313  0.71700167  0.92072041     0.10000
H1452       H  0.71558576  0.69049642  0.96304330     0.08800
N1453       N  0.91037964  0.81924276  0.91912306    -0.25600
N1454       N  0.93869799  0.81155524  0.90557923    -0.33500
C1455       C  0.95345702  0.78802969  0.92271434     0.02700
C1456       C  0.93367918  0.78029678  0.94835178     0.08800
C1457       C  0.90645840  0.80060465  0.94532366    -0.04300
H1458       H  0.97764932  0.77830007  0.91761069     0.09400
H1459       H  0.88635176  0.80326881  0.96191679     0.10600
Cu1460     Cu  0.95889146  0.83517239  0.86654566     0.44200
Cu1461     Cu  0.88053953  0.85748423  0.90332438     0.42000
Cu1462     Cu  0.91062321  0.90084722  0.83431099     0.43900
N1463       N  0.47465353  0.86386340  0.82885633    -0.33000
N1464       N  0.95652529  0.88791639  0.81718579    -0.27200
C1465       C  0.47303195  0.90256151  0.79357197    -0.03300
C1466       C  0.50286047  0.88677956  0.78977682     0.08900
C1467       C  0.50329818  0.86248911  0.81279004     0.02700
H1468       H  0.96385181  0.92311979  0.77995552     0.10300
H1469       H  0.52293308  0.84526691  0.81760290     0.09400
N1470       N  0.86868735  0.91447111  0.85877078    -0.34400
N1471       N  0.85811065  0.89910795  0.88444182    -0.26600
C1472       C  0.83385733  0.91689010  0.89762282    -0.01900
C1473       C  0.82877144  0.94466611  0.87931668     0.06800
C1474       C  0.85128989  0.94224110  0.85481203     0.04800
H1475       H  0.82227353  0.91111858  0.92007332     0.10000
H1476       H  0.85681257  0.96066832  0.83716918     0.08800
N1477       N  0.64077285  0.88635257  0.68299475    -0.25600
N1478       N  0.62328909  0.86198052  0.67099000    -0.33500
C1479       C  0.59389302  0.86086964  0.68577095     0.02700
C1480       C  0.59315590  0.88566436  0.70832851     0.08800
C1481       C  0.62310350  0.90144284  0.70558668    -0.04300
H1482       H  0.57453687  0.84354269  0.68034662     0.09400
H1483       H  0.63149937  0.92241531  0.71913542     0.10600
Cu1484     Cu  0.64073068  0.83278837  0.63431560     0.44200
Cu1485     Cu  0.68708504  0.89959754  0.66708507     0.42000
Cu1486     Cu  0.71891686  0.85622608  0.59849422     0.43900
N1487       N  0.66185905  0.80922957  0.59568104    -0.33000
N1488       N  0.69012115  0.81742313  0.58236193    -0.27200
C1489       C  0.69436123  0.79923358  0.55586217    -0.03300
C1490       C  0.66738998  0.77869499  0.55240390     0.08900
C1491       C  0.64746350  0.78577808  0.57813408     0.02700
H1492       H  0.71433810  0.80256780  0.53923327     0.10300
H1493       H  0.62325385  0.77592980  0.58284256     0.09400
N1494       N  0.73976204  0.89876462  0.61702409    -0.34400
N1495       N  0.72865353  0.91416886  0.64252012    -0.26600
C1496       C  0.74499206  0.94263470  0.64601687    -0.01900
C1497       C  0.76731666  0.94543058  0.62138488     0.06800
C1498       C  0.76325875  0.91718097  0.60350196     0.04800
H1499       H  0.73885166  0.96118238  0.66342344     0.10000
H1500       H  0.77499639  0.91143372  0.58110389     0.08800
N1501       N  0.47176024  0.63562067  0.67220473    -0.25600
N1502       N  0.95360238  0.61241953  0.68521980    -0.33500
C1503       C  0.47056318  0.59872547  0.70923934     0.02700
C1504       C  0.50070959  0.61426740  0.71179542     0.08800
C1505       C  0.50080079  0.63742683  0.68775007    -0.04300
H1506       H  0.96171351  0.57865244  0.72364816     0.09400
H1507       H  0.52067148  0.65382052  0.68157744     0.10600
Cu1508     Cu  0.90761282  0.59856572  0.66829697     0.44200
Cu1509     Cu  0.95624601  0.66183176  0.63271366     0.42000
Cu1510     Cu  0.87754628  0.63989323  0.59719833     0.43900
N1511       N  0.86637781  0.58368115  0.64286568    -0.33000
N1512       N  0.85578684  0.59852251  0.61681284    -0.27200
C1513       C  0.83238609  0.57995503  0.60311817    -0.03300
C1514       C  0.82787013  0.55214253  0.62138843     0.08900
C1515       C  0.84980158  0.55538490  0.64649179     0.02700
H1516       H  0.82114768  0.58520918  0.58030087     0.10300
H1517       H  0.85556504  0.53720732  0.66434972     0.09400
N1518       N  0.90837405  0.67581518  0.57889554    -0.34400
N1519       N  0.93710489  0.68320719  0.59193156    -0.26600
C1520       C  0.95279121  0.70463573  0.57319584    -0.01900
C1521       C  0.93313674  0.71131554  0.54705465     0.06800
C1522       C  0.90504972  0.69257205  0.55142643     0.04800
H1523       H  0.97737398  0.71372657  0.57772417     0.10000
H1524       H  0.88465865  0.68965861  0.53503246     0.08800
C1525       C  0.51809849  0.71358263  0.74416184     0.14400
C1526       C  0.54699092  0.73202275  0.75027919     0.01300
C1527       C  0.57600698  0.71393467  0.75680080     0.16300
C1528       C  0.57679790  0.67997018  0.75258277     0.25700
C1529       C  0.54738330  0.66183503  0.75070548    -0.40600
C1530       C  0.51773241  0.67963633  0.74863595     0.32800
C1531       C  0.54700452  0.76918808  0.74977037     0.01400
F1532       F  0.60360422  0.72833114  0.76845917    -0.12900
F1533       F  0.98811899  0.66455860  0.75093400    -0.14600
C1534       C  0.51812313  0.78765936  0.75577202     0.16300
C1535       C  0.51775126  0.82160797  0.75136796     0.25700
C1536       C  0.54737933  0.83929713  0.74911540    -0.40600
C1537       C  0.57678810  0.82123118  0.74718927     0.32700
C1538       C  0.57601959  0.78723008  0.74330150     0.14400
F1539       F  0.49028639  0.77371985  0.76714899    -0.12900
F1540       F  0.60653341  0.83617587  0.74896387    -0.13400
F1541       F  0.48818070  0.83692731  0.74958760    -0.15700
F1542       F  0.60362368  0.77274994  0.73194546    -0.14300
F1543       F  0.99022658  0.72754904  0.73265620    -0.14300
F1544       F  0.60659041  0.66524068  0.75020483    -0.15700
C1545       C  0.81294314  0.52384961  0.78495790     0.14400
C1546       C  0.79745741  0.49860193  0.76772929     0.01300
C1547       C  0.78220491  0.97294041  0.78439891     0.16300
C1548       C  0.78247744  0.97253189  0.81772813     0.25700
C1549       C  0.79811432  0.49766314  0.83490805    -0.40600
C1550       C  0.81337983  0.52329328  0.81827913     0.32800
C1551       C  0.79752561  0.49880915  0.73240847     0.01400
F1552       F  0.76645516  0.94864761  0.76834683    -0.12900
F1553       F  0.82901911  0.54756549  0.83442550    -0.13500
C1554       C  0.81283417  0.97332673  0.71545842     0.16300
C1555       C  0.81297648  0.97344489  0.68214131     0.25700
C1556       C  0.79762938  0.99889848  0.66521924    -0.40600
C1557       C  0.78235018  0.52439997  0.68211821     0.32700
C1558       C  0.78239096  0.52443683  0.71545958     0.14400
F1559       F  0.82821653  0.94866143  0.73124479    -0.12900
F1560       F  0.76695491  0.54895991  0.66622229    -0.13400
F1561       F  0.82857668  0.94901272  0.66629082    -0.15700
F1562       F  0.76711095  0.54915059  0.73122927    -0.14300
F1563       F  0.82815392  0.54872339  0.76946190    -0.14300
F1564       F  0.76686685  0.94801078  0.83334501    -0.15700
C1565       C  0.83696130  0.76216106  0.52337551     0.14400
C1566       C  0.81872915  0.74657270  0.99922718     0.01300
C1567       C  0.83543215  0.73092685  0.97420088     0.16300
C1568       C  0.86988202  0.73070969  0.97347874     0.25700
C1569       C  0.88803839  0.74616063  0.99770097    -0.40600
C1570       C  0.87139293  0.76198731  0.52256753     0.32800
C1571       C  0.78230208  0.74659233  0.00017910     0.01400
F1572       F  0.81833175  0.71529881  0.95087370    -0.12900
F1573       F  0.88863804  0.77746914  0.54585695    -0.13500
C1574       C  0.76408619  0.76294583  0.97654677     0.16300
C1575       C  0.72965245  0.76283956  0.97737060     0.25700
C1576       C  0.71298138  0.74633516  0.00174937    -0.40600
C1577       C  0.73113102  0.73008400  0.52544038     0.32700
C1578       C  0.76558291  0.73022037  0.52469297     0.14400
F1579       F  0.77971733  0.77939218  0.95296746    -0.12900
F1580       F  0.71535550  0.71356481  0.54885966    -0.13400
F1581       F  0.71243582  0.77906297  0.95458531    -0.15700
F1582       F  0.78267039  0.71381153  0.54747585    -0.14300
F1583       F  0.82134992  0.77792977  0.54745609    -0.14300
F1584       F  0.88565156  0.71491202  0.94953198    -0.15700
loop_ 
_geom_bond_atom_site_label_1 
_geom_bond_atom_site_label_2 
_geom_bond_distance 
_geom_bond_site_symmetry_2 
_ccdc_geom_bond_type 
N1            C5   1.358       .  A
N1          C200   1.358       .  A
N1          C190   1.438       .  S
C2          N199   1.358       .  A
C2            C3   1.383       .  A
C2          C104   1.480       .  S
C3          C202   1.373   1_554  A
C3            H6   1.082       .  S
C4            C5   1.382       .  A
C4          C201   1.373       .  A
C4            H7   1.082       .  S
C5           C63   1.478       .  S
N8           C12   1.358       .  A
N8          C207   1.358       .  A
N8          C183   1.437       .  S
C9          N206   1.358   1_554  A
C9           C10   1.382       .  A
C9          C135   1.480       .  S
C10         C209   1.373   1_554  A
C10          H13   1.082       .  S
C11          C12   1.383       .  A
C11         C208   1.373       .  A
C11          H14   1.082       .  S
C12          C70   1.481       .  S
N15          C16   1.359       .  A
N15         C415   1.358       .  A
N15         C170   1.441       .  S
C16          C17   1.382       .  A
C16         C111   1.478       .  S
C17         C414   1.375       .  A
C17          H20   1.082       .  S
C18          C19   1.383       .  A
C18         C413   1.375   1_545  A
C18          H21   1.082       .  S
C19         N411   1.358   1_545  A
C19         C128   1.478       .  S
N22          C26   1.358   1_565  A
N22         C419   1.359       .  A
N22         C163   1.441       .  S
C23         N418   1.359       .  A
C23          C24   1.383       .  A
C23          C87   1.478       .  S
C24         C421   1.375       .  A
C24          H27   1.082       .  S
C25          C26   1.382       .  A
C25         C420   1.375   1_545  A
C25          H28   1.082       .  S
C26          C56   1.477       .  S
N29          C33   1.368       .  A
N29          C30   1.368       .  A
N29         C143   1.458       .  S
C30          C31   1.380       .  A
C30         C118   1.478       .  S
C31          C32   1.367       .  A
C31          H34   1.082       .  S
C32          C33   1.380       .  A
C32          H35   1.082       .  S
C33          C46   1.478       .  S
N36          C40   1.367       .  A
N36          C37   1.366       .  A
N36         C150   1.455       .  S
C37          C38   1.380       .  A
C37          C80   1.478       .  S
C38          C39   1.368       .  A
C38          H41   1.082       .  S
C39          C40   1.381       .  A
C39          H42   1.082       .  S
C40          C94   1.478       .  S
N43          C47   1.349       .  A
N43          N44   1.321       .  A
N43         Cu51   2.071       .  S
N44          C45   1.342       .  A
N44         Cu50   2.076       .  S
C45          C46   1.384       .  A
C45          H48   1.082       .  S
C46          C47   1.385       .  A
C47          H49   1.081       .  S
Cu50         N53   2.075       .  S
Cu51         N61   2.072       .  S
Cu52         N54   2.076       .  S
Cu52         N60   2.076       .  S
N53          C57   1.347       .  A
N53          N54   1.323       .  A
N54          C55   1.343       .  A
C55          C56   1.383       .  A
C55          H58   1.082       .  S
C56          C57   1.384       .  A
C57          H59   1.082       .  S
N60          C64   1.348       .  A
N60          N61   1.322       .  A
N61          C62   1.341       .  A
C62          C63   1.383       .  A
C62          H65   1.082       .  S
C63          C64   1.387       .  A
C64          H66   1.082       .  S
N67          C71   1.349       .  A
N67          N68   1.323       .  A
N67         Cu75   2.084       .  S
N68          C69   1.341       .  A
N68         Cu74   2.076       .  S
C69          C70   1.383       .  A
C69          H72   1.082       .  S
C70          C71   1.388       .  A
C71          H73   1.081       .  S
Cu74        N869   2.075       .  S
Cu75         N85   2.085       .  S
Cu76         N78   2.069       .  S
Cu76         N84   2.069       .  S
N77          C81   1.349   1_655  A
N77         N870   1.321       .  A
N77        Cu866   2.075       .  S
N78         C871   1.341       .  A
N78         N869   1.321       .  A
C79         N870   1.341       .  A
C79          C80   1.382   1_655  A
C79         H874   1.082       .  S
C80          C81   1.386       .  A
C81          H83   1.082       .  S
H82         C871   1.082       .  S
N84          C88   1.346       .  A
N84          N85   1.322       .  A
N85          C86   1.344       .  A
C86          C87   1.386       .  A
C86          H89   1.082       .  S
C87          C88   1.383       .  A
C88          H90   1.081       .  S
N91          C95   1.341       .  A
N91          N92   1.321       .  A
N91         Cu99   2.072       .  S
N92          C93   1.349       .  A
N92         Cu98   2.074       .  S
C93          C94   1.386       .  A
C93          H96   1.081       .  S
C94          C95   1.382       .  A
C95          H97   1.082       .  S
Cu98        N101   2.074       .  S
Cu99        N109   2.071       .  S
Cu100       N102   2.081       .  S
Cu100       N108   2.082       .  S
N101        C105   1.341       .  A
N101        N102   1.323       .  A
N102        C103   1.349       .  A
C103        C104   1.387       .  A
C103        H106   1.082       .  S
C104        C105   1.383       .  A
C105        H107   1.082       .  S
N108        C112   1.344       .  A
N108        N109   1.322       .  A
N109        C110   1.346       .  A
C110        C111   1.384       .  A
C110        H113   1.082       .  S
C111        C112   1.385       .  A
C112        H114   1.082       .  S
N115        C119   1.348   1_655  A
N115        N908   1.321       .  A
N115       Cu915   2.072       .  S
N116        C909   1.342       .  A
N116        N907   1.321       .  A
N116       Cu122   2.075       .  S
C117        N908   1.342       .  A
C117        C118   1.383   1_655  A
C117        H912   1.082       .  S
C118        C119   1.385       .  A
C119        H121   1.081       .  S
H120        C909   1.083       .  S
Cu122       N125   2.074       .  S
Cu123       N133   2.073       .  S
Cu123       N907   2.072       .  S
Cu124       N126   2.080       .  S
Cu124       N132   2.080       .  S
N125        C129   1.347       .  A
N125        N126   1.323       .  A
N126        C127   1.343       .  A
C127        C128   1.385       .  A
C127        H130   1.082       .  S
C128        C129   1.384       .  A
C129        H131   1.081       .  S
N132        C136   1.349       .  A
N132        N133   1.322       .  A
N133        C134   1.341       .  A
C134        C135   1.383       .  A
C134        H137   1.082       .  S
C135        C136   1.387       .  A
C136        H138   1.082       .  S
C139        C140   1.417       .  A
C139        C144   1.399       .  A
C139        F949   1.355   1_455  S
C140        C141   1.417       .  A
C140        C145   1.518       .  S
C141        C142   1.398       .  A
C141        F146   1.356       .  S
C142        C143   1.408       .  A
C142        F158   1.355       .  S
C143        C144   1.409       .  A
C144        F939   1.356   1_455  S
C145        C148   1.418       .  A
C145        C152   1.418       .  A
F147        C936   1.356       .  S
C148        C149   1.399       .  A
C148        F153   1.355   1_455  S
C149        C150   1.408       .  A
C149        F155   1.356   1_455  S
C150        C151   1.406       .  A
C151        C152   1.398       .  A
C151        F154   1.356       .  S
C152        F156   1.356       .  S
F157        C931   1.355       .  S
C159        C160   1.406   1_545  A
C159        C164   1.400       .  A
C159        F177   1.358       .  S
C160        C557   1.407       .  A
C160        C165   1.484       .  S
C161        C162   1.400       .  A
C161        C556   1.407       .  A
C161        F166   1.358       .  S
C162        C559   1.404       .  A
C162        F178   1.357       .  S
C163        C164   1.405   1_565  A
C163        C558   1.404       .  A
C164        F167   1.357       .  S
C165        C172   1.407   1_565  A
C165        C564   1.406       .  A
C168        C169   1.400       .  A
C168        C561   1.406       .  A
C168        F173   1.358       .  S
C169        C170   1.405       .  A
C169        F175   1.357       .  S
C170        C567   1.405       .  A
C171        C172   1.401       .  A
C171        C566   1.405   1_545  A
C171        F174   1.357       .  S
C172        F176   1.358       .  S
C179        C184   1.399       .  A
C179        C378   1.406   1_554  A
C179        F197   1.358       .  S
C180        C181   1.406       .  A
C180        C377   1.406       .  A
C180        C185   1.481       .  S
C181        C182   1.400       .  A
C181        F186   1.358       .  S
C182        C183   1.404       .  A
C182        F198   1.357       .  S
C183        C382   1.403       .  A
C184        C381   1.403   1_554  A
C184        F187   1.357       .  S
C185        C188   1.406       .  A
C185        C390   1.406       .  A
C188        C189   1.399       .  A
C188        F193   1.358       .  S
C189        C190   1.404       .  A
C189        F195   1.357       .  S
C190        C389   1.404       .  A
C191        C192   1.400       .  A
C191        C388   1.404       .  A
C191        F194   1.357       .  S
C192        C383   1.406       .  A
C192        F196   1.358       .  S
N199        C203   1.358   1_554  A
N199        C388   1.438       .  S
C200        C201   1.383       .  A
C200        C302   1.480       .  S
C201        H204   1.082       .  S
C202        C203   1.382       .  A
C202        H205   1.082       .  S
C203        C261   1.478       .  S
N206        C210   1.358       .  A
N206        C381   1.437       .  S
C207        C208   1.382       .  A
C207        C333   1.480       .  S
C208        H211   1.082       .  S
C209        C210   1.383       .  A
C209        H212   1.082       .  S
C210        C268   1.481       .  S
N213        C613   1.358       .  A
N213        C214   1.359       .  A
N213        C368   1.441       .  S
C214        C215   1.382       .  A
C214        C309   1.478       .  S
C215        C612   1.375       .  A
C215        H218   1.082       .  S
C216        C611   1.375   1_545  A
C216        C217   1.383       .  A
C216        H219   1.082       .  S
C217        N609   1.358   1_545  A
C217        C326   1.478       .  S
N220        C224   1.358   1_565  A
N220        C617   1.359       .  A
N220        C361   1.441       .  S
C221        N616   1.359       .  A
C221        C222   1.383       .  A
C221        C285   1.478       .  S
C222        C619   1.375       .  A
C222        H225   1.082       .  S
C223        C618   1.375   1_545  A
C223        C224   1.382       .  A
C223        H226   1.082       .  S
C224        C254   1.477       .  S
N227        C231   1.368       .  A
N227        C228   1.368       .  A
N227        C341   1.458       .  S
C228        C229   1.380       .  A
C228        C316   1.478       .  S
C229        C230   1.367       .  A
C229        H232   1.082       .  S
C230        C231   1.380       .  A
C230        H233   1.082       .  S
C231        C244   1.478       .  S
N234        C238   1.367       .  A
N234        C235   1.366       .  A
N234        C348   1.455       .  S
C235        C236   1.380       .  A
C235        C278   1.478       .  S
C236        C237   1.368       .  A
C236        H239   1.082       .  S
C237        C238   1.381       .  A
C237        H240   1.082       .  S
C238        C292   1.478       .  S
N241        C245   1.349       .  A
N241        N242   1.322       .  A
N241       Cu249   2.071       .  S
N242        C243   1.342       .  A
N242       Cu248   2.076       .  S
C243        C244   1.384       .  A
C243        H246   1.083       .  S
C244        C245   1.385       .  A
C245        H247   1.081       .  S
Cu248       N251   2.075       .  S
Cu249       N259   2.072       .  S
Cu250       N252   2.076       .  S
Cu250       N258   2.076       .  S
N251        C255   1.347       .  A
N251        N252   1.322       .  A
N252        C253   1.343       .  A
C253        C254   1.383       .  A
C253        H256   1.082       .  S
C254        C255   1.384       .  A
C255        H257   1.082       .  S
N258        C262   1.348       .  A
N258        N259   1.322       .  A
N259        C260   1.341       .  A
C260        C261   1.383       .  A
C260        H263   1.082       .  S
C261        C262   1.387       .  A
C262        H264   1.082       .  S
N265        C269   1.349       .  A
N265        N266   1.323       .  A
N265       Cu273   2.084       .  S
N266        C267   1.341       .  A
N266       Cu272   2.076       .  S
C267        C268   1.383       .  A
C267        H270   1.082       .  S
C268        C269   1.388       .  A
C269        H271   1.081       .  S
Cu272      N1067   2.075       .  S
Cu273       N283   2.085       .  S
Cu274       N276   2.069       .  S
Cu274       N282   2.069       .  S
N275        C279   1.349   1_655  A
N275       N1068   1.321       .  A
N275      Cu1064   2.075       .  S
N276       C1069   1.341       .  A
N276       N1067   1.321       .  A
C277       N1068   1.341       .  A
C277        C278   1.382   1_655  A
C277       H1072   1.082       .  S
C278        C279   1.386       .  A
C279        H281   1.081       .  S
H280       C1069   1.082       .  S
N282        C286   1.346       .  A
N282        N283   1.322       .  A
N283        C284   1.344       .  A
C284        C285   1.386       .  A
C284        H287   1.082       .  S
C285        C286   1.383       .  A
C286        H288   1.082       .  S
N289        C293   1.341       .  A
N289        N290   1.321       .  A
N289       Cu297   2.072       .  S
N290        C291   1.349       .  A
N290       Cu296   2.074       .  S
C291        C292   1.386       .  A
C291        H294   1.081       .  S
C292        C293   1.382       .  A
C293        H295   1.082       .  S
Cu296       N299   2.074       .  S
Cu297       N307   2.071       .  S
Cu298       N300   2.081       .  S
Cu298       N306   2.082       .  S
N299        C303   1.341       .  A
N299        N300   1.323       .  A
N300        C301   1.349       .  A
C301        C302   1.387       .  A
C301        H304   1.082       .  S
C302        C303   1.383       .  A
C303        H305   1.082       .  S
N306        C310   1.344       .  A
N306        N307   1.322       .  A
N307        C308   1.346       .  A
C308        C309   1.384       .  A
C308        H311   1.082       .  S
C309        C310   1.385       .  A
C310        H312   1.082       .  S
N313        C317   1.348   1_655  A
N313       N1106   1.321       .  A
N313      Cu1113   2.072       .  S
N314       C1107   1.342       .  A
N314       N1105   1.321       .  A
N314       Cu320   2.075       .  S
C315       N1106   1.342       .  A
C315        C316   1.383   1_655  A
C315       H1110   1.083       .  S
C316        C317   1.385       .  A
C317        H319   1.081       .  S
H318       C1107   1.082       .  S
Cu320       N323   2.074       .  S
Cu321      N1105   2.072       .  S
Cu321       N331   2.073       .  S
Cu322       N324   2.080       .  S
Cu322       N330   2.080       .  S
N323        C327   1.347       .  A
N323        N324   1.322       .  A
N324        C325   1.343       .  A
C325        C326   1.385       .  A
C325        H328   1.082       .  S
C326        C327   1.384       .  A
C327        H329   1.081       .  S
N330        C334   1.349       .  A
N330        N331   1.322       .  A
N331        C332   1.341       .  A
C332        C333   1.383       .  A
C332        H335   1.082       .  S
C333        C334   1.387       .  A
C334        H336   1.082       .  S
C337        C338   1.417       .  A
C337        C342   1.399       .  A
C337       F1147   1.355   1_455  S
C338        C339   1.417       .  A
C338        C343   1.518       .  S
C339        C340   1.398       .  A
C339        F344   1.356       .  S
C340        C341   1.408       .  A
C340        F356   1.355       .  S
C341        C342   1.409       .  A
C342       F1137   1.356   1_455  S
C343        C346   1.418       .  A
C343        C350   1.418       .  A
F345       C1134   1.356       .  S
C346        C347   1.399       .  A
C346        F351   1.355   1_455  S
C347        C348   1.408       .  A
C347        F353   1.356   1_455  S
C348        C349   1.406       .  A
C349        C350   1.398       .  A
C349        F352   1.356       .  S
C350        F354   1.356       .  S
F355       C1129   1.355       .  S
C357        C358   1.406   1_545  A
C357        C362   1.400       .  A
C357        F375   1.358       .  S
C358        C755   1.407       .  A
C358        C363   1.484       .  S
C359        C754   1.407       .  A
C359        C360   1.400       .  A
C359        F364   1.358       .  S
C360        C757   1.404       .  A
C360        F376   1.357       .  S
C361        C756   1.404       .  A
C361        C362   1.405   1_565  A
C362        F365   1.357       .  S
C363        C762   1.406       .  A
C363        C370   1.407   1_565  A
C366        C759   1.406       .  A
C366        C367   1.400       .  A
C366        F371   1.358       .  S
C367        C368   1.405       .  A
C367        F373   1.357       .  S
C368        C765   1.405       .  A
C369        C764   1.405   1_545  A
C369        C370   1.401       .  A
C369        F372   1.357       .  S
C370        F374   1.358       .  S
C377        C382   1.399       .  A
C377        F395   1.358       .  S
C378        C379   1.406       .  A
C378        C383   1.481   1_556  S
C379        C380   1.400       .  A
C379        F384   1.358       .  S
C380        C381   1.404       .  A
C380        F396   1.357       .  S
C382        F385   1.357       .  S
C383        C386   1.406   1_554  A
C386        C387   1.399       .  A
C386        F391   1.358       .  S
C387        C388   1.404   1_556  A
C387        F393   1.357       .  S
C389        C390   1.400       .  A
C389        F392   1.357       .  S
C390        F394   1.358       .  S
N397        C401   1.358       .  A
N397        C596   1.358       .  A
N397        C586   1.438       .  S
C398        N595   1.358       .  A
C398        C399   1.383       .  A
C398        C500   1.480       .  S
C399        C598   1.373   1_554  A
C399        H402   1.082       .  S
C400        C597   1.372       .  A
C400        C401   1.382       .  A
C400        H403   1.082       .  S
C401        C459   1.478       .  S
N404        C408   1.358       .  A
N404        C603   1.358       .  A
N404        C579   1.437       .  S
C405        N602   1.358   1_554  A
C405        C406   1.382       .  A
C405        C531   1.480       .  S
C406        C605   1.373   1_554  A
C406        H409   1.082       .  S
C407        C604   1.373       .  A
C407        C408   1.383       .  A
C407        H410   1.082       .  S
C408        C466   1.481       .  S
N411        C412   1.359       .  A
N411        C566   1.441       .  S
C412        C413   1.382       .  A
C412        C507   1.478       .  S
C413        H416   1.082       .  S
C414        C415   1.383       .  A
C414        H417   1.082       .  S
C415        C524   1.478       .  S
N418        C422   1.358       .  A
N418        C559   1.441       .  S
C419        C420   1.383       .  A
C419        C483   1.478       .  S
C420        H423   1.082       .  S
C421        C422   1.382       .  A
C421        H424   1.082       .  S
C422        C452   1.477       .  S
N425        C429   1.368       .  A
N425        C426   1.368       .  A
N425        C539   1.458       .  S
C426        C427   1.380       .  A
C426        C514   1.478       .  S
C427        C428   1.367       .  A
C427        H430   1.082       .  S
C428        C429   1.380       .  A
C428        H431   1.082       .  S
C429        C442   1.478       .  S
N432        C436   1.367       .  A
N432        C433   1.366       .  A
N432        C546   1.455       .  S
C433        C434   1.380       .  A
C433        C476   1.478       .  S
C434        C435   1.368       .  A
C434        H437   1.082       .  S
C435        C436   1.381       .  A
C435        H438   1.082       .  S
C436        C490   1.478       .  S
N439        C443   1.349       .  A
N439        N440   1.321       .  A
N439       Cu447   2.071       .  S
N440        C441   1.342       .  A
N440       Cu446   2.076       .  S
C441        C442   1.384       .  A
C441        H444   1.083       .  S
C442        C443   1.385       .  A
C443        H445   1.081       .  S
Cu446       N449   2.075       .  S
Cu447       N457   2.072       .  S
Cu448       N450   2.076       .  S
Cu448       N456   2.076       .  S
N449        C453   1.347       .  A
N449        N450   1.322       .  A
N450        C451   1.343       .  A
C451        C452   1.383       .  A
C451        H454   1.082       .  S
C452        C453   1.384       .  A
C453        H455   1.081       .  S
N456        C460   1.348       .  A
N456        N457   1.322       .  A
N457        C458   1.341       .  A
C458        C459   1.383       .  A
C458        H461   1.082       .  S
C459        C460   1.387       .  A
C460        H462   1.082       .  S
N463        C467   1.349       .  A
N463        N464   1.323       .  A
N463       Cu471   2.084       .  S
N464        C465   1.341       .  A
N464       Cu470   2.076       .  S
C465        C466   1.383       .  A
C465        H468   1.083       .  S
C466        C467   1.388       .  A
C467        H469   1.081       .  S
Cu470      N1265   2.075       .  S
Cu471       N481   2.085       .  S
Cu472       N474   2.069       .  S
Cu472       N480   2.069       .  S
N473        C477   1.349   1_655  A
N473       N1266   1.321       .  A
N473      Cu1262   2.075       .  S
N474       C1267   1.341       .  A
N474       N1265   1.321       .  A
C475       N1266   1.341       .  A
C475        C476   1.382   1_655  A
C475       H1270   1.082       .  S
C476        C477   1.386       .  A
C477        H479   1.082       .  S
H478       C1267   1.082       .  S
N480        C484   1.346       .  A
N480        N481   1.322       .  A
N481        C482   1.344       .  A
C482        C483   1.386       .  A
C482        H485   1.082       .  S
C483        C484   1.383       .  A
C484        H486   1.081       .  S
N487        C491   1.341       .  A
N487        N488   1.321       .  A
N487       Cu495   2.072       .  S
N488        C489   1.349       .  A
N488       Cu494   2.074       .  S
C489        C490   1.386       .  A
C489        H492   1.082       .  S
C490        C491   1.382       .  A
C491        H493   1.082       .  S
Cu494       N497   2.074       .  S
Cu495       N505   2.071       .  S
Cu496       N498   2.081       .  S
Cu496       N504   2.082       .  S
N497        C501   1.341       .  A
N497        N498   1.323       .  A
N498        C499   1.349       .  A
C499        C500   1.387       .  A
C499        H502   1.082       .  S
C500        C501   1.383       .  A
C501        H503   1.082       .  S
N504        C508   1.344       .  A
N504        N505   1.322       .  A
N505        C506   1.346       .  A
C506        C507   1.384       .  A
C506        H509   1.082       .  S
C507        C508   1.385       .  A
C508        H510   1.082       .  S
N511        C515   1.348   1_655  A
N511       N1304   1.321       .  A
N511      Cu1311   2.072       .  S
N512       C1305   1.342       .  A
N512       N1303   1.321       .  A
N512       Cu518   2.075       .  S
C513       N1304   1.342       .  A
C513        C514   1.383   1_655  A
C513       H1308   1.083       .  S
C514        C515   1.385       .  A
C515        H517   1.081       .  S
H516       C1305   1.082       .  S
Cu518       N521   2.074       .  S
Cu519      N1303   2.072       .  S
Cu519       N529   2.073       .  S
Cu520       N522   2.080       .  S
Cu520       N528   2.080       .  S
N521        C525   1.347       .  A
N521        N522   1.322       .  A
N522        C523   1.343       .  A
C523        C524   1.385       .  A
C523        H526   1.082       .  S
C524        C525   1.384       .  A
C525        H527   1.081       .  S
N528        C532   1.349       .  A
N528        N529   1.322       .  A
N529        C530   1.341       .  A
C530        C531   1.383       .  A
C530        H533   1.082       .  S
C531        C532   1.387       .  A
C532        H534   1.082       .  S
C535        C536   1.417       .  A
C535        C540   1.399       .  A
C535       F1345   1.355   1_455  S
C536        C537   1.417       .  A
C536        C541   1.518       .  S
C537        C538   1.398       .  A
C537        F542   1.356       .  S
C538        C539   1.408       .  A
C538        F554   1.355       .  S
C539        C540   1.409       .  A
C540       F1335   1.356   1_455  S
C541        C544   1.418       .  A
C541        C548   1.418       .  A
F543       C1332   1.356       .  S
C544        C545   1.399       .  A
C544        F549   1.355   1_455  S
C545        C546   1.408       .  A
C545        F551   1.356   1_455  S
C546        C547   1.406       .  A
C547        C548   1.398       .  A
C547        F550   1.356       .  S
C548        F552   1.356       .  S
F553       C1327   1.355       .  S
C555        C556   1.406       .  A
C555        C560   1.400       .  A
C555        F573   1.358       .  S
C556        C561   1.484       .  S
C557        C558   1.400       .  A
C557        F562   1.358       .  S
C558        F574   1.357       .  S
C559        C560   1.405       .  A
C560        F563   1.357       .  S
C561        C568   1.407       .  A
C564        C565   1.400       .  A
C564        F569   1.358       .  S
C565        C566   1.405       .  A
C565        F571   1.357       .  S
C567        C568   1.401       .  A
C567        F570   1.357       .  S
C568        F572   1.358       .  S
C575        C774   1.406   1_554  A
C575        C580   1.399       .  A
C575        F593   1.358       .  S
C576        C773   1.406       .  A
C576        C577   1.406       .  A
C576        C581   1.481       .  S
C577        C578   1.400       .  A
C577        F582   1.358       .  S
C578        C579   1.404       .  A
C578        F594   1.357       .  S
C579        C778   1.403       .  A
C580        C777   1.403   1_554  A
C580        F583   1.357       .  S
C581        C584   1.406       .  A
C581        C786   1.406       .  A
C584        C585   1.400       .  A
C584        F589   1.358       .  S
C585        C586   1.404       .  A
C585        F591   1.357       .  S
C586        C785   1.404       .  A
C587        C784   1.404       .  A
C587        C588   1.400       .  A
C587        F590   1.357       .  S
C588        C779   1.406       .  A
C588        F592   1.358       .  S
N595        C599   1.358   1_554  A
N595        C784   1.438       .  S
C596        C597   1.383       .  A
C596        C698   1.480       .  S
C597        H600   1.082       .  S
C598        C599   1.382       .  A
C598        H601   1.082       .  S
C599        C657   1.478       .  S
N602        C606   1.358       .  A
N602        C777   1.437       .  S
C603        C604   1.382       .  A
C603        C729   1.480       .  S
C604        H607   1.082       .  S
C605        C606   1.383       .  A
C605        H608   1.082       .  S
C606        C664   1.481       .  S
N609        C610   1.359       .  A
N609        C764   1.441       .  S
C610        C611   1.382       .  A
C610        C705   1.478       .  S
C611        H614   1.082       .  S
C612        C613   1.383       .  A
C612        H615   1.082       .  S
C613        C722   1.478       .  S
N616        C620   1.358       .  A
N616        C757   1.441       .  S
C617        C618   1.383       .  A
C617        C681   1.478       .  S
C618        H621   1.082       .  S
C619        C620   1.382       .  A
C619        H622   1.082       .  S
C620        C650   1.477       .  S
N623        C627   1.368       .  A
N623        C624   1.368       .  A
N623        C737   1.458       .  S
C624        C625   1.380       .  A
C624        C712   1.478       .  S
C625        C626   1.367       .  A
C625        H628   1.082       .  S
C626        C627   1.380       .  A
C626        H629   1.082       .  S
C627        C640   1.478       .  S
N630        C634   1.367       .  A
N630        C631   1.366       .  A
N630        C744   1.455       .  S
C631        C632   1.380       .  A
C631        C674   1.478       .  S
C632        C633   1.368       .  A
C632        H635   1.082       .  S
C633        C634   1.381       .  A
C633        H636   1.082       .  S
C634        C688   1.478       .  S
N637        C641   1.349       .  A
N637        N638   1.321       .  A
N637       Cu645   2.071       .  S
N638        C639   1.342       .  A
N638       Cu644   2.076       .  S
C639        C640   1.384       .  A
C639        H642   1.082       .  S
C640        C641   1.385       .  A
C641        H643   1.081       .  S
Cu644       N647   2.075       .  S
Cu645       N655   2.072       .  S
Cu646       N648   2.076       .  S
Cu646       N654   2.076       .  S
N647        C651   1.347       .  A
N647        N648   1.323       .  A
N648        C649   1.343       .  A
C649        C650   1.383       .  A
C649        H652   1.082       .  S
C650        C651   1.384       .  A
C651        H653   1.082       .  S
N654        C658   1.348       .  A
N654        N655   1.322       .  A
N655        C656   1.341       .  A
C656        C657   1.383       .  A
C656        H659   1.082       .  S
C657        C658   1.387       .  A
C658        H660   1.082       .  S
N661        C665   1.349       .  A
N661        N662   1.323       .  A
N661       Cu669   2.084       .  S
N662        C663   1.341       .  A
N662       Cu668   2.076       .  S
C663        C664   1.383       .  A
C663        H666   1.082       .  S
C664        C665   1.388       .  A
C665        H667   1.081       .  S
Cu668      N1463   2.075       .  S
Cu669       N679   2.085       .  S
Cu670       N672   2.069       .  S
Cu670       N678   2.069       .  S
N671        C675   1.349   1_655  A
N671       N1464   1.321       .  A
N671      Cu1460   2.075       .  S
N672       C1465   1.341       .  A
N672       N1463   1.321       .  A
C673       N1464   1.341       .  A
C673        C674   1.382   1_655  A
C673       H1468   1.082       .  S
C674        C675   1.386       .  A
C675        H677   1.081       .  S
H676       C1465   1.082       .  S
N678        C682   1.346       .  A
N678        N679   1.322       .  A
N679        C680   1.344       .  A
C680        C681   1.386       .  A
C680        H683   1.082       .  S
C681        C682   1.383       .  A
C682        H684   1.081       .  S
N685        C689   1.341       .  A
N685        N686   1.321       .  A
N685       Cu693   2.071       .  S
N686        C687   1.349       .  A
N686       Cu692   2.073       .  S
C687        C688   1.386       .  A
C687        H690   1.082       .  S
C688        C689   1.382       .  A
C689        H691   1.082       .  S
Cu692       N695   2.074       .  S
Cu693       N703   2.071       .  S
Cu694       N696   2.081       .  S
Cu694       N702   2.082       .  S
N695        C699   1.341       .  A
N695        N696   1.323       .  A
N696        C697   1.349       .  A
C697        C698   1.387       .  A
C697        H700   1.082       .  S
C698        C699   1.383       .  A
C699        H701   1.082       .  S
N702        C706   1.344       .  A
N702        N703   1.322       .  A
N703        C704   1.346       .  A
C704        C705   1.384       .  A
C704        H707   1.082       .  S
C705        C706   1.385       .  A
C706        H708   1.082       .  S
N709        C713   1.348   1_655  A
N709       N1502   1.321       .  A
N709      Cu1509   2.072       .  S
N710       C1503   1.342       .  A
N710       N1501   1.322       .  A
N710       Cu716   2.075       .  S
C711       N1502   1.342       .  A
C711        C712   1.383   1_655  A
C711       H1506   1.082       .  S
C712        C713   1.385       .  A
C713        H715   1.081       .  S
H714       C1503   1.083       .  S
Cu716       N719   2.074       .  S
Cu717      N1501   2.072       .  S
Cu717       N727   2.073       .  S
Cu718       N720   2.080       .  S
Cu718       N726   2.080       .  S
N719        C723   1.347       .  A
N719        N720   1.323       .  A
N720        C721   1.343       .  A
C721        C722   1.385       .  A
C721        H724   1.082       .  S
C722        C723   1.384       .  A
C723        H725   1.082       .  S
N726        C730   1.349       .  A
N726        N727   1.322       .  A
N727        C728   1.341       .  A
C728        C729   1.383       .  A
C728        H731   1.082       .  S
C729        C730   1.387       .  A
C730        H732   1.082       .  S
C733        C734   1.417       .  A
C733        C738   1.399       .  A
C733       F1543   1.355   1_455  S
C734        C735   1.417       .  A
C734        C739   1.518       .  S
C735        C736   1.398       .  A
C735        F740   1.356       .  S
C736        C737   1.408       .  A
C736        F752   1.355       .  S
C737        C738   1.409       .  A
C738       F1533   1.356   1_455  S
C739        C742   1.418       .  A
C739        C746   1.418       .  A
F741       C1530   1.356       .  S
C742        C743   1.399       .  A
C742        F747   1.355   1_455  S
C743        C744   1.408       .  A
C743        F749   1.356   1_455  S
C744        C745   1.406       .  A
C745        C746   1.398       .  A
C745        F748   1.356       .  S
C746        F750   1.356       .  S
F751       C1525   1.355       .  S
C753        C754   1.406       .  A
C753        C758   1.400       .  A
C753        F771   1.358       .  S
C754        C759   1.484       .  S
C755        C756   1.400       .  A
C755        F760   1.358       .  S
C756        F772   1.357       .  S
C757        C758   1.405       .  A
C758        F761   1.357       .  S
C759        C766   1.407       .  A
C762        C763   1.400       .  A
C762        F767   1.358       .  S
C763        C764   1.405       .  A
C763        F769   1.357       .  S
C765        C766   1.401       .  A
C765        F768   1.357       .  S
C766        F770   1.358       .  S
C773        C778   1.399       .  A
C773        F791   1.358       .  S
C774        C775   1.406       .  A
C774        C779   1.481   1_556  S
C775        C776   1.400       .  A
C775        F780   1.358       .  S
C776        C777   1.404       .  A
C776        F792   1.357       .  S
C778        F781   1.357       .  S
C779        C782   1.406   1_554  A
C782        C783   1.399       .  A
C782        F787   1.358       .  S
C783        C784   1.404   1_556  A
C783        F789   1.357       .  S
C785        C786   1.400       .  A
C785        F788   1.357       .  S
C786        F790   1.358       .  S
N793        C797   1.358       .  A
N793        C992   1.358       .  A
N793        C982   1.438       .  S
C794        N991   1.358       .  A
C794        C795   1.383       .  A
C794        C896   1.480       .  S
C795        C994   1.372   1_554  A
C795        H798   1.082       .  S
C796        C993   1.372       .  A
C796        C797   1.382       .  A
C796        H799   1.082       .  S
C797        C855   1.478       .  S
N800        C804   1.358       .  A
N800        C999   1.358       .  A
N800        C975   1.437       .  S
C801        N998   1.358   1_554  A
C801        C802   1.382       .  A
C801        C927   1.480       .  S
C802       C1001   1.373   1_554  A
C802        H805   1.082       .  S
C803       C1000   1.373       .  A
C803        C804   1.383       .  A
C803        H806   1.082       .  S
C804        C862   1.481       .  S
N807       C1207   1.358       .  A
N807        C808   1.359       .  A
N807        C962   1.441       .  S
C808        C809   1.382       .  A
C808        C903   1.478       .  S
C809       C1206   1.375       .  A
C809        H812   1.082       .  S
C810       C1205   1.375   1_545  A
C810        C811   1.383       .  A
C810        H813   1.082       .  S
C811       N1203   1.358   1_545  A
C811        C920   1.478       .  S
N814        C818   1.358   1_565  A
N814       C1211   1.359       .  A
N814        C955   1.441       .  S
C815       N1210   1.359       .  A
C815        C816   1.383       .  A
C815        C879   1.479       .  S
C816       C1213   1.375       .  A
C816        H819   1.082       .  S
C817       C1212   1.375   1_545  A
C817        C818   1.382       .  A
C817        H820   1.082       .  S
C818        C848   1.477       .  S
N821        C825   1.368       .  A
N821        C822   1.368       .  A
N821        C935   1.458       .  S
C822        C823   1.380       .  A
C822        C910   1.478       .  S
C823        C824   1.367       .  A
C823        H826   1.082       .  S
C824        C825   1.380       .  A
C824        H827   1.082       .  S
C825        C838   1.478       .  S
N828        C832   1.367       .  A
N828        C829   1.367       .  A
N828        C942   1.455       .  S
C829        C830   1.380       .  A
C829        C872   1.478       .  S
C830        C831   1.368       .  A
C830        H833   1.082       .  S
C831        C832   1.381       .  A
C831        H834   1.082       .  S
C832        C886   1.478       .  S
N835        C839   1.349       .  A
N835        N836   1.321       .  A
N835       Cu843   2.071       .  S
N836        C837   1.342       .  A
N836       Cu842   2.076       .  S
C837        C838   1.384       .  A
C837        H840   1.082       .  S
C838        C839   1.385       .  A
C839        H841   1.081       .  S
Cu842       N845   2.075       .  S
Cu843       N853   2.072       .  S
Cu844       N846   2.076       .  S
Cu844       N852   2.076       .  S
N845        C849   1.347       .  A
N845        N846   1.322       .  A
N846        C847   1.343       .  A
C847        C848   1.383       .  A
C847        H850   1.082       .  S
C848        C849   1.384       .  A
C849        H851   1.082       .  S
N852        C856   1.348       .  A
N852        N853   1.322       .  A
N853        C854   1.341       .  A
C854        C855   1.383       .  A
C854        H857   1.082       .  S
C855        C856   1.387       .  A
C856        H858   1.082       .  S
N859        C863   1.349       .  A
N859        N860   1.323       .  A
N859       Cu867   2.084       .  S
N860        C861   1.341       .  A
N860       Cu866   2.076       .  S
C861        C862   1.383       .  A
C861        H864   1.082       .  S
C862        C863   1.388       .  A
C863        H865   1.081       .  S
Cu867       N877   2.085       .  S
Cu868       N870   2.069       .  S
Cu868       N876   2.069       .  S
N869        C873   1.349       .  A
C871        C872   1.382       .  A
C872        C873   1.386       .  A
C873        H875   1.082       .  S
N876        C880   1.346       .  A
N876        N877   1.322       .  A
N877        C878   1.344       .  A
C878        C879   1.386       .  A
C878        H881   1.082       .  S
C879        C880   1.383       .  A
C880        H882   1.081       .  S
N883        C887   1.341       .  A
N883        N884   1.321       .  A
N883       Cu891   2.071       .  S
N884        C885   1.349       .  A
N884       Cu890   2.074       .  S
C885        C886   1.386       .  A
C885        H888   1.082       .  S
C886        C887   1.382       .  A
C887        H889   1.082       .  S
Cu890       N893   2.074       .  S
Cu891       N901   2.071       .  S
Cu892       N894   2.081       .  S
Cu892       N900   2.082       .  S
N893        C897   1.341       .  A
N893        N894   1.323       .  A
N894        C895   1.349       .  A
C895        C896   1.387       .  A
C895        H898   1.081       .  S
C896        C897   1.383       .  A
C897        H899   1.082       .  S
N900        C904   1.344       .  A
N900        N901   1.322       .  A
N901        C902   1.346       .  A
C902        C903   1.384       .  A
C902        H905   1.082       .  S
C903        C904   1.385       .  A
C904        H906   1.082       .  S
N907        C911   1.348       .  A
N908       Cu914   2.075       .  S
C909        C910   1.383       .  A
C910        C911   1.385       .  A
C911        H913   1.081       .  S
Cu914       N917   2.074       .  S
Cu915       N925   2.073       .  S
Cu916       N918   2.080       .  S
Cu916       N924   2.080       .  S
N917        C921   1.347       .  A
N917        N918   1.322       .  A
N918        C919   1.343       .  A
C919        C920   1.385       .  A
C919        H922   1.082       .  S
C920        C921   1.384       .  A
C921        H923   1.081       .  S
N924        C928   1.349       .  A
N924        N925   1.322       .  A
N925        C926   1.341       .  A
C926        C927   1.383       .  A
C926        H929   1.082       .  S
C927        C928   1.387       .  A
C928        H930   1.082       .  S
C931        C932   1.417       .  A
C931        C936   1.399       .  A
C932        C933   1.417       .  A
C932        C937   1.518       .  S
C933        C934   1.398       .  A
C933        F938   1.356       .  S
C934        C935   1.408       .  A
C934        F950   1.355       .  S
C935        C936   1.409       .  A
C937        C940   1.418       .  A
C937        C944   1.418       .  A
C940        C941   1.399       .  A
C940        F945   1.355       .  S
C941        C942   1.408       .  A
C941        F947   1.356       .  S
C942        C943   1.406       .  A
C943        C944   1.398       .  A
C943        F946   1.356       .  S
C944        F948   1.356       .  S
C951        C952   1.406   1_545  A
C951        C956   1.400       .  A
C951        F969   1.358       .  S
C952       C1349   1.407       .  A
C952        C957   1.484       .  S
C953       C1348   1.407       .  A
C953        C954   1.400       .  A
C953        F958   1.358       .  S
C954       C1351   1.404       .  A
C954        F970   1.357       .  S
C955       C1350   1.404       .  A
C955        C956   1.405   1_565  A
C956        F959   1.357       .  S
C957       C1356   1.406       .  A
C957        C964   1.407   1_565  A
C960       C1353   1.406       .  A
C960        C961   1.400       .  A
C960        F965   1.358       .  S
C961        C962   1.405       .  A
C961        F967   1.357       .  S
C962       C1359   1.405       .  A
C963       C1358   1.405   1_545  A
C963        C964   1.401       .  A
C963        F966   1.357       .  S
C964        F968   1.358       .  S
C971       C1170   1.406   1_554  A
C971        C976   1.399       .  A
C971        F989   1.358       .  S
C972       C1169   1.406       .  A
C972        C973   1.406       .  A
C972        C977   1.481       .  S
C973        C974   1.400       .  A
C973        F978   1.358       .  S
C974        C975   1.404       .  A
C974        F990   1.357       .  S
C975       C1174   1.403       .  A
C976       C1173   1.403   1_554  A
C976        F979   1.357       .  S
C977        C980   1.406       .  A
C977       C1182   1.406       .  A
C980        C981   1.399       .  A
C980        F985   1.358       .  S
C981        C982   1.404       .  A
C981        F987   1.357       .  S
C982       C1181   1.404       .  A
C983       C1180   1.404       .  A
C983        C984   1.400       .  A
C983        F986   1.357       .  S
C984       C1175   1.406       .  A
C984        F988   1.358       .  S
N991        C995   1.358   1_554  A
N991       C1180   1.438       .  S
C992        C993   1.383       .  A
C992       C1094   1.480       .  S
C993        H996   1.082       .  S
C994        C995   1.382       .  A
C994        H997   1.082       .  S
C995       C1053   1.478       .  S
N998       C1002   1.358       .  A
N998       C1173   1.437       .  S
C999       C1000   1.382       .  A
C999       C1125   1.480       .  S
C1000      H1003   1.082       .  S
C1001      C1002   1.383       .  A
C1001      H1004   1.082       .  S
C1002      C1060   1.481       .  S
N1005      C1405   1.358       .  A
N1005      C1006   1.359       .  A
N1005      C1160   1.441       .  S
C1006      C1007   1.382       .  A
C1006      C1101   1.478       .  S
C1007      C1404   1.375       .  A
C1007      H1010   1.082       .  S
C1008      C1403   1.375   1_545  A
C1008      C1009   1.383       .  A
C1008      H1011   1.082       .  S
C1009      N1401   1.358   1_545  A
C1009      C1118   1.478       .  S
N1012      C1016   1.358   1_565  A
N1012      C1409   1.359       .  A
N1012      C1153   1.441       .  S
C1013      N1408   1.359       .  A
C1013      C1014   1.383       .  A
C1013      C1077   1.478       .  S
C1014      C1411   1.375       .  A
C1014      H1017   1.082       .  S
C1015      C1410   1.375   1_545  A
C1015      C1016   1.382       .  A
C1015      H1018   1.082       .  S
C1016      C1046   1.477       .  S
N1019      C1023   1.369       .  A
N1019      C1020   1.368       .  A
N1019      C1133   1.458       .  S
C1020      C1021   1.380       .  A
C1020      C1108   1.478       .  S
C1021      C1022   1.367       .  A
C1021      H1024   1.082       .  S
C1022      C1023   1.380       .  A
C1022      H1025   1.082       .  S
C1023      C1036   1.478       .  S
N1026      C1030   1.367       .  A
N1026      C1027   1.366       .  A
N1026      C1140   1.455       .  S
C1027      C1028   1.380       .  A
C1027      C1070   1.478       .  S
C1028      C1029   1.368       .  A
C1028      H1031   1.082       .  S
C1029      C1030   1.381       .  A
C1029      H1032   1.082       .  S
C1030      C1084   1.478       .  S
N1033      C1037   1.349       .  A
N1033      N1034   1.321       .  A
N1033     Cu1041   2.071       .  S
N1034      C1035   1.342       .  A
N1034     Cu1040   2.076       .  S
C1035      C1036   1.384       .  A
C1035      H1038   1.082       .  S
C1036      C1037   1.385       .  A
C1037      H1039   1.081       .  S
Cu1040     N1043   2.075       .  S
Cu1041     N1051   2.072       .  S
Cu1042     N1044   2.076       .  S
Cu1042     N1050   2.076       .  S
N1043      C1047   1.347       .  A
N1043      N1044   1.323       .  A
N1044      C1045   1.343       .  A
C1045      C1046   1.383       .  A
C1045      H1048   1.082       .  S
C1046      C1047   1.384       .  A
C1047      H1049   1.082       .  S
N1050      C1054   1.348       .  A
N1050      N1051   1.322       .  A
N1051      C1052   1.341       .  A
C1052      C1053   1.383       .  A
C1052      H1055   1.081       .  S
C1053      C1054   1.387       .  A
C1054      H1056   1.082       .  S
N1057      C1061   1.349       .  A
N1057      N1058   1.323       .  A
N1057     Cu1065   2.084       .  S
N1058      C1059   1.341       .  A
N1058     Cu1064   2.076       .  S
C1059      C1060   1.383       .  A
C1059      H1062   1.082       .  S
C1060      C1061   1.388       .  A
C1061      H1063   1.081       .  S
Cu1065     N1075   2.085       .  S
Cu1066     N1068   2.069       .  S
Cu1066     N1074   2.069       .  S
N1067      C1071   1.349       .  A
C1069      C1070   1.382       .  A
C1070      C1071   1.386       .  A
C1071      H1073   1.081       .  S
N1074      C1078   1.346       .  A
N1074      N1075   1.322       .  A
N1075      C1076   1.344       .  A
C1076      C1077   1.386       .  A
C1076      H1079   1.082       .  S
C1077      C1078   1.383       .  A
C1078      H1080   1.082       .  S
N1081      C1085   1.341       .  A
N1081      N1082   1.321       .  A
N1081     Cu1089   2.072       .  S
N1082      C1083   1.349       .  A
N1082     Cu1088   2.073       .  S
C1083      C1084   1.386       .  A
C1083      H1086   1.081       .  S
C1084      C1085   1.382       .  A
C1085      H1087   1.082       .  S
Cu1088     N1091   2.074       .  S
Cu1089     N1099   2.071       .  S
Cu1090     N1092   2.081       .  S
Cu1090     N1098   2.082       .  S
N1091      C1095   1.341       .  A
N1091      N1092   1.323       .  A
N1092      C1093   1.349       .  A
C1093      C1094   1.387       .  A
C1093      H1096   1.082       .  S
C1094      C1095   1.383       .  A
C1095      H1097   1.082       .  S
N1098      C1102   1.344       .  A
N1098      N1099   1.322       .  A
N1099      C1100   1.346       .  A
C1100      C1101   1.384       .  A
C1100      H1103   1.082       .  S
C1101      C1102   1.385       .  A
C1102      H1104   1.082       .  S
N1105      C1109   1.348       .  A
N1106     Cu1112   2.075       .  S
C1107      C1108   1.383       .  A
C1108      C1109   1.385       .  A
C1109      H1111   1.081       .  S
Cu1112     N1115   2.074       .  S
Cu1113     N1123   2.073       .  S
Cu1114     N1116   2.080       .  S
Cu1114     N1122   2.080       .  S
N1115      C1119   1.347       .  A
N1115      N1116   1.323       .  A
N1116      C1117   1.343       .  A
C1117      C1118   1.385       .  A
C1117      H1120   1.082       .  S
C1118      C1119   1.384       .  A
C1119      H1121   1.082       .  S
N1122      C1126   1.349       .  A
N1122      N1123   1.322       .  A
N1123      C1124   1.341       .  A
C1124      C1125   1.383       .  A
C1124      H1127   1.082       .  S
C1125      C1126   1.387       .  A
C1126      H1128   1.082       .  S
C1129      C1130   1.417       .  A
C1129      C1134   1.399       .  A
C1130      C1131   1.417       .  A
C1130      C1135   1.518       .  S
C1131      C1132   1.398       .  A
C1131      F1136   1.356       .  S
C1132      C1133   1.408       .  A
C1132      F1148   1.355       .  S
C1133      C1134   1.409       .  A
C1135      C1138   1.418       .  A
C1135      C1142   1.418       .  A
C1138      C1139   1.399       .  A
C1138      F1143   1.355       .  S
C1139      C1140   1.408       .  A
C1139      F1145   1.356       .  S
C1140      C1141   1.406       .  A
C1141      C1142   1.398       .  A
C1141      F1144   1.356       .  S
C1142      F1146   1.356       .  S
C1149      C1150   1.406   1_545  A
C1149      C1154   1.400       .  A
C1149      F1167   1.358       .  S
C1150      C1547   1.407       .  A
C1150      C1155   1.484       .  S
C1151      C1546   1.407       .  A
C1151      C1152   1.400       .  A
C1151      F1156   1.358       .  S
C1152      C1549   1.404       .  A
C1152      F1168   1.357       .  S
C1153      C1548   1.404       .  A
C1153      C1154   1.405   1_565  A
C1154      F1157   1.357       .  S
C1155      C1554   1.406       .  A
C1155      C1162   1.407   1_565  A
C1158      C1551   1.406       .  A
C1158      C1159   1.400       .  A
C1158      F1163   1.358       .  S
C1159      C1160   1.405       .  A
C1159      F1165   1.357       .  S
C1160      C1557   1.405       .  A
C1161      C1556   1.405   1_545  A
C1161      C1162   1.401       .  A
C1161      F1164   1.357       .  S
C1162      F1166   1.358       .  S
C1169      C1174   1.399       .  A
C1169      F1187   1.358       .  S
C1170      C1171   1.406       .  A
C1170      C1175   1.481   1_556  S
C1171      C1172   1.400       .  A
C1171      F1176   1.358       .  S
C1172      C1173   1.404       .  A
C1172      F1188   1.357       .  S
C1174      F1177   1.357       .  S
C1175      C1178   1.406   1_554  A
C1178      C1179   1.399       .  A
C1178      F1183   1.358       .  S
C1179      C1180   1.404   1_556  A
C1179      F1185   1.357       .  S
C1181      C1182   1.400       .  A
C1181      F1184   1.357       .  S
C1182      F1186   1.358       .  S
N1189      C1193   1.358       .  A
N1189      C1388   1.358       .  A
N1189      C1378   1.438       .  S
C1190      N1387   1.358       .  A
C1190      C1191   1.383       .  A
C1190      C1292   1.480       .  S
C1191      C1390   1.373   1_554  A
C1191      H1194   1.082       .  S
C1192      C1389   1.372       .  A
C1192      C1193   1.382       .  A
C1192      H1195   1.082       .  S
C1193      C1251   1.478       .  S
N1196      C1200   1.358       .  A
N1196      C1395   1.358       .  A
N1196      C1371   1.437       .  S
C1197      N1394   1.358   1_554  A
C1197      C1198   1.382       .  A
C1197      C1323   1.480       .  S
C1198      C1397   1.373   1_554  A
C1198      H1201   1.082       .  S
C1199      C1396   1.373       .  A
C1199      C1200   1.383       .  A
C1199      H1202   1.082       .  S
C1200      C1258   1.481       .  S
N1203      C1204   1.359       .  A
N1203      C1358   1.441       .  S
C1204      C1205   1.382       .  A
C1204      C1299   1.478       .  S
C1205      H1208   1.082       .  S
C1206      C1207   1.383       .  A
C1206      H1209   1.082       .  S
C1207      C1316   1.478       .  S
N1210      C1214   1.358       .  A
N1210      C1351   1.441       .  S
C1211      C1212   1.383       .  A
C1211      C1275   1.479       .  S
C1212      H1215   1.082       .  S
C1213      C1214   1.382       .  A
C1213      H1216   1.082       .  S
C1214      C1244   1.477       .  S
N1217      C1221   1.368       .  A
N1217      C1218   1.368       .  A
N1217      C1331   1.458       .  S
C1218      C1219   1.380       .  A
C1218      C1306   1.478       .  S
C1219      C1220   1.367       .  A
C1219      H1222   1.082       .  S
C1220      C1221   1.380       .  A
C1220      H1223   1.082       .  S
C1221      C1234   1.478       .  S
N1224      C1228   1.367       .  A
N1224      C1225   1.366       .  A
N1224      C1338   1.455       .  S
C1225      C1226   1.380       .  A
C1225      C1268   1.478       .  S
C1226      C1227   1.368       .  A
C1226      H1229   1.082       .  S
C1227      C1228   1.381       .  A
C1227      H1230   1.082       .  S
C1228      C1282   1.478       .  S
N1231      C1235   1.348       .  A
N1231      N1232   1.322       .  A
N1231     Cu1239   2.071       .  S
N1232      C1233   1.342       .  A
N1232     Cu1238   2.076       .  S
C1233      C1234   1.384       .  A
C1233      H1236   1.083       .  S
C1234      C1235   1.385       .  A
C1235      H1237   1.081       .  S
Cu1238     N1241   2.075       .  S
Cu1239     N1249   2.072       .  S
Cu1240     N1242   2.076       .  S
Cu1240     N1248   2.076       .  S
N1241      C1245   1.347       .  A
N1241      N1242   1.322       .  A
N1242      C1243   1.343       .  A
C1243      C1244   1.383       .  A
C1243      H1246   1.082       .  S
C1244      C1245   1.384       .  A
C1245      H1247   1.081       .  S
N1248      C1252   1.348       .  A
N1248      N1249   1.322       .  A
N1249      C1250   1.341       .  A
C1250      C1251   1.383       .  A
C1250      H1253   1.082       .  S
C1251      C1252   1.387       .  A
C1252      H1254   1.082       .  S
N1255      C1259   1.349       .  A
N1255      N1256   1.323       .  A
N1255     Cu1263   2.084       .  S
N1256      C1257   1.341       .  A
N1256     Cu1262   2.076       .  S
C1257      C1258   1.383       .  A
C1257      H1260   1.082       .  S
C1258      C1259   1.388       .  A
C1259      H1261   1.081       .  S
Cu1263     N1273   2.085       .  S
Cu1264     N1266   2.069       .  S
Cu1264     N1272   2.069       .  S
N1265      C1269   1.349       .  A
C1267      C1268   1.382       .  A
C1268      C1269   1.386       .  A
C1269      H1271   1.081       .  S
N1272      C1276   1.346       .  A
N1272      N1273   1.322       .  A
N1273      C1274   1.344       .  A
C1274      C1275   1.386       .  A
C1274      H1277   1.082       .  S
C1275      C1276   1.383       .  A
C1276      H1278   1.081       .  S
N1279      C1283   1.341       .  A
N1279      N1280   1.321       .  A
N1279     Cu1287   2.071       .  S
N1280      C1281   1.349       .  A
N1280     Cu1286   2.073       .  S
C1281      C1282   1.386       .  A
C1281      H1284   1.082       .  S
C1282      C1283   1.382       .  A
C1283      H1285   1.082       .  S
Cu1286     N1289   2.074       .  S
Cu1287     N1297   2.071       .  S
Cu1288     N1290   2.081       .  S
Cu1288     N1296   2.082       .  S
N1289      C1293   1.341       .  A
N1289      N1290   1.323       .  A
N1290      C1291   1.349       .  A
C1291      C1292   1.387       .  A
C1291      H1294   1.081       .  S
C1292      C1293   1.383       .  A
C1293      H1295   1.082       .  S
N1296      C1300   1.344       .  A
N1296      N1297   1.322       .  A
N1297      C1298   1.346       .  A
C1298      C1299   1.384       .  A
C1298      H1301   1.082       .  S
C1299      C1300   1.385       .  A
C1300      H1302   1.082       .  S
N1303      C1307   1.348       .  A
N1304     Cu1310   2.075       .  S
C1305      C1306   1.383       .  A
C1306      C1307   1.385       .  A
C1307      H1309   1.081       .  S
Cu1310     N1313   2.074       .  S
Cu1311     N1321   2.073       .  S
Cu1312     N1314   2.080       .  S
Cu1312     N1320   2.080       .  S
N1313      C1317   1.347       .  A
N1313      N1314   1.323       .  A
N1314      C1315   1.343       .  A
C1315      C1316   1.385       .  A
C1315      H1318   1.082       .  S
C1316      C1317   1.384       .  A
C1317      H1319   1.082       .  S
N1320      C1324   1.349       .  A
N1320      N1321   1.322       .  A
N1321      C1322   1.341       .  A
C1322      C1323   1.383       .  A
C1322      H1325   1.082       .  S
C1323      C1324   1.387       .  A
C1324      H1326   1.082       .  S
C1327      C1328   1.417       .  A
C1327      C1332   1.399       .  A
C1328      C1329   1.417       .  A
C1328      C1333   1.518       .  S
C1329      C1330   1.398       .  A
C1329      F1334   1.356       .  S
C1330      C1331   1.408       .  A
C1330      F1346   1.355       .  S
C1331      C1332   1.409       .  A
C1333      C1336   1.418       .  A
C1333      C1340   1.418       .  A
C1336      C1337   1.399       .  A
C1336      F1341   1.355       .  S
C1337      C1338   1.408       .  A
C1337      F1343   1.356       .  S
C1338      C1339   1.406       .  A
C1339      C1340   1.398       .  A
C1339      F1342   1.356       .  S
C1340      F1344   1.356       .  S
C1347      C1348   1.406       .  A
C1347      C1352   1.400       .  A
C1347      F1365   1.358       .  S
C1348      C1353   1.484       .  S
C1349      C1350   1.400       .  A
C1349      F1354   1.358       .  S
C1350      F1366   1.357       .  S
C1351      C1352   1.405       .  A
C1352      F1355   1.357       .  S
C1353      C1360   1.407       .  A
C1356      C1357   1.400       .  A
C1356      F1361   1.358       .  S
C1357      C1358   1.405       .  A
C1357      F1363   1.357       .  S
C1359      C1360   1.401       .  A
C1359      F1362   1.357       .  S
C1360      F1364   1.358       .  S
C1367      C1566   1.406   1_554  A
C1367      C1372   1.399       .  A
C1367      F1385   1.358       .  S
C1368      C1565   1.406       .  A
C1368      C1369   1.406       .  A
C1368      C1373   1.481       .  S
C1369      C1370   1.400       .  A
C1369      F1374   1.358       .  S
C1370      C1371   1.404       .  A
C1370      F1386   1.357       .  S
C1371      C1570   1.403       .  A
C1372      C1569   1.403   1_554  A
C1372      F1375   1.357       .  S
C1373      C1376   1.406       .  A
C1373      C1578   1.406       .  A
C1376      C1377   1.399       .  A
C1376      F1381   1.358       .  S
C1377      C1378   1.404       .  A
C1377      F1383   1.357       .  S
C1378      C1577   1.404       .  A
C1379      C1576   1.404       .  A
C1379      C1380   1.400       .  A
C1379      F1382   1.357       .  S
C1380      C1571   1.406       .  A
C1380      F1384   1.358       .  S
N1387      C1391   1.358   1_554  A
N1387      C1576   1.438       .  S
C1388      C1389   1.383       .  A
C1388      C1490   1.480       .  S
C1389      H1392   1.082       .  S
C1390      C1391   1.382       .  A
C1390      H1393   1.082       .  S
C1391      C1449   1.478       .  S
N1394      C1398   1.358       .  A
N1394      C1569   1.437       .  S
C1395      C1396   1.382       .  A
C1395      C1521   1.480       .  S
C1396      H1399   1.082       .  S
C1397      C1398   1.383       .  A
C1397      H1400   1.082       .  S
C1398      C1456   1.481       .  S
N1401      C1402   1.359       .  A
N1401      C1556   1.441       .  S
C1402      C1403   1.382       .  A
C1402      C1497   1.478       .  S
C1403      H1406   1.082       .  S
C1404      C1405   1.383       .  A
C1404      H1407   1.082       .  S
C1405      C1514   1.478       .  S
N1408      C1412   1.358       .  A
N1408      C1549   1.441       .  S
C1409      C1410   1.383       .  A
C1409      C1473   1.479       .  S
C1410      H1413   1.082       .  S
C1411      C1412   1.382       .  A
C1411      H1414   1.082       .  S
C1412      C1442   1.477       .  S
N1415      C1419   1.368       .  A
N1415      C1416   1.368       .  A
N1415      C1529   1.458       .  S
C1416      C1417   1.380       .  A
C1416      C1504   1.478       .  S
C1417      C1418   1.367       .  A
C1417      H1420   1.082       .  S
C1418      C1419   1.380       .  A
C1418      H1421   1.082       .  S
C1419      C1432   1.478       .  S
N1422      C1426   1.367       .  A
N1422      C1423   1.366       .  A
N1422      C1536   1.455       .  S
C1423      C1424   1.380       .  A
C1423      C1466   1.478       .  S
C1424      C1425   1.368       .  A
C1424      H1427   1.082       .  S
C1425      C1426   1.381       .  A
C1425      H1428   1.082       .  S
C1426      C1480   1.478       .  S
N1429      C1433   1.348       .  A
N1429      N1430   1.322       .  A
N1429     Cu1437   2.071       .  S
N1430      C1431   1.342       .  A
N1430     Cu1436   2.076       .  S
C1431      C1432   1.384       .  A
C1431      H1434   1.083       .  S
C1432      C1433   1.385       .  A
C1433      H1435   1.081       .  S
Cu1436     N1439   2.075       .  S
Cu1437     N1447   2.072       .  S
Cu1438     N1440   2.076       .  S
Cu1438     N1446   2.076       .  S
N1439      C1443   1.347       .  A
N1439      N1440   1.322       .  A
N1440      C1441   1.343       .  A
C1441      C1442   1.383       .  A
C1441      H1444   1.082       .  S
C1442      C1443   1.384       .  A
C1443      H1445   1.082       .  S
N1446      C1450   1.348       .  A
N1446      N1447   1.322       .  A
N1447      C1448   1.341       .  A
C1448      C1449   1.383       .  A
C1448      H1451   1.081       .  S
C1449      C1450   1.387       .  A
C1450      H1452   1.082       .  S
N1453      C1457   1.349       .  A
N1453      N1454   1.323       .  A
N1453     Cu1461   2.084       .  S
N1454      C1455   1.341       .  A
N1454     Cu1460   2.076       .  S
C1455      C1456   1.383       .  A
C1455      H1458   1.082       .  S
C1456      C1457   1.388       .  A
C1457      H1459   1.081       .  S
Cu1461     N1471   2.085       .  S
Cu1462     N1464   2.069       .  S
Cu1462     N1470   2.069       .  S
N1463      C1467   1.349       .  A
C1465      C1466   1.382       .  A
C1466      C1467   1.386       .  A
C1467      H1469   1.082       .  S
N1470      C1474   1.346       .  A
N1470      N1471   1.322       .  A
N1471      C1472   1.344       .  A
C1472      C1473   1.386       .  A
C1472      H1475   1.082       .  S
C1473      C1474   1.383       .  A
C1474      H1476   1.081       .  S
N1477      C1481   1.341       .  A
N1477      N1478   1.321       .  A
N1477     Cu1485   2.072       .  S
N1478      C1479   1.349       .  A
N1478     Cu1484   2.074       .  S
C1479      C1480   1.386       .  A
C1479      H1482   1.081       .  S
C1480      C1481   1.382       .  A
C1481      H1483   1.082       .  S
Cu1484     N1487   2.074       .  S
Cu1485     N1495   2.071       .  S
Cu1486     N1488   2.081       .  S
Cu1486     N1494   2.082       .  S
N1487      C1491   1.341       .  A
N1487      N1488   1.323       .  A
N1488      C1489   1.349       .  A
C1489      C1490   1.387       .  A
C1489      H1492   1.082       .  S
C1490      C1491   1.383       .  A
C1491      H1493   1.082       .  S
N1494      C1498   1.344       .  A
N1494      N1495   1.322       .  A
N1495      C1496   1.346       .  A
C1496      C1497   1.384       .  A
C1496      H1499   1.082       .  S
C1497      C1498   1.385       .  A
C1498      H1500   1.082       .  S
N1501      C1505   1.348       .  A
N1502     Cu1508   2.075       .  S
C1503      C1504   1.383       .  A
C1504      C1505   1.385       .  A
C1505      H1507   1.082       .  S
Cu1508     N1511   2.074       .  S
Cu1509     N1519   2.073       .  S
Cu1510     N1512   2.080       .  S
Cu1510     N1518   2.080       .  S
N1511      C1515   1.347       .  A
N1511      N1512   1.322       .  A
N1512      C1513   1.343       .  A
C1513      C1514   1.385       .  A
C1513      H1516   1.082       .  S
C1514      C1515   1.384       .  A
C1515      H1517   1.081       .  S
N1518      C1522   1.349       .  A
N1518      N1519   1.322       .  A
N1519      C1520   1.341       .  A
C1520      C1521   1.383       .  A
C1520      H1523   1.082       .  S
C1521      C1522   1.387       .  A
C1522      H1524   1.082       .  S
C1525      C1526   1.417       .  A
C1525      C1530   1.399       .  A
C1526      C1527   1.417       .  A
C1526      C1531   1.518       .  S
C1527      C1528   1.398       .  A
C1527      F1532   1.356       .  S
C1528      C1529   1.408       .  A
C1528      F1544   1.355       .  S
C1529      C1530   1.409       .  A
C1531      C1534   1.418       .  A
C1531      C1538   1.418       .  A
C1534      C1535   1.399       .  A
C1534      F1539   1.355       .  S
C1535      C1536   1.408       .  A
C1535      F1541   1.356       .  S
C1536      C1537   1.406       .  A
C1537      C1538   1.398       .  A
C1537      F1540   1.356       .  S
C1538      F1542   1.356       .  S
C1545      C1546   1.406       .  A
C1545      C1550   1.400       .  A
C1545      F1563   1.358       .  S
C1546      C1551   1.484       .  S
C1547      C1548   1.400       .  A
C1547      F1552   1.358       .  S
C1548      F1564   1.357       .  S
C1549      C1550   1.405       .  A
C1550      F1553   1.357       .  S
C1551      C1558   1.407       .  A
C1554      C1555   1.400       .  A
C1554      F1559   1.358       .  S
C1555      C1556   1.405       .  A
C1555      F1561   1.357       .  S
C1557      C1558   1.401       .  A
C1557      F1560   1.357       .  S
C1558      F1562   1.358       .  S
C1565      C1570   1.399       .  A
C1565      F1583   1.358       .  S
C1566      C1567   1.406       .  A
C1566      C1571   1.481   1_556  S
C1567      C1568   1.400       .  A
C1567      F1572   1.358       .  S
C1568      C1569   1.404       .  A
C1568      F1584   1.357       .  S
C1570      F1573   1.357       .  S
C1571      C1574   1.406   1_554  A
C1574      C1575   1.399       .  A
C1574      F1579   1.358       .  S
C1575      C1576   1.404   1_556  A
C1575      F1581   1.357       .  S
C1577      C1578   1.400       .  A
C1577      F1580   1.357       .  S
C1578      F1582   1.358       .  S
