geometry optimzed in LAMMPS
_audit_creation_date              2020-11-30 
_audit_creation_method            'lammps2cif' 
_symmetry_space_group_name_H-M    'P1' 
_symmetry_Int_Tables_number       1 
_symmetry_cell_setting            triclinic 
loop_ 
_symmetry_equiv_pos_as_xyz 
  x,y,z 
_cell_length_a                    68.36887593 
_cell_length_b                    37.26147005172228 
_cell_length_c                    40.88335722243523 
_cell_angle_alpha                 90.4567017722989 
_cell_angle_beta                  88.2471106707208 
_cell_angle_gamma                 90.19861734622245 
loop_ 
_atom_site_label 
_atom_site_type_symbol 
_atom_site_fract_x 
_atom_site_fract_y 
_atom_site_fract_z 
_atom_site_charge 
C1          C  0.96425231  0.14959316  0.14500157     0.02900
C2          C  0.96805123  0.14437536  0.11131794    -0.13300
C3          C  0.98186709  0.16589701  0.09472825     0.00400
C4          C  0.99188847  0.19262400  0.11182072    -0.11800
C5          C  0.98833563  0.19758466  0.14543238     0.02900
C6          C  0.97455570  0.17604250  0.16196817    -0.11200
H7          H  0.96070657  0.12304103  0.09828992     0.08500
H8          H  0.00301007  0.20859891  0.09921570     0.06000
H9          H  0.97208766  0.17949137  0.18812804     0.05900
O10         O  0.85849706  0.00580051  0.17004604    -0.81100
O11         O  0.79958126  0.89966549  0.10322583    -0.65800
O12         O  0.82688722  0.96106267  0.15992914    -1.12400
C13         C  0.85819828  0.85765752  0.19361261     1.05800
O14         O  0.79830934  0.85011795  0.13329196    -0.79000
O15         O  0.80481321  0.87975755  0.19378548    -0.66600
Ni16       Ni  0.83754986  0.00361424  0.13998988     1.34900
C17         C  0.81217010  0.90069758  0.21482206     0.84500
O18         O  0.79514274  0.96716859  0.12016530    -0.79600
O19         O  0.81720221  0.00902221  0.10825212    -0.89800
C20         C  0.79320842  0.86846947  0.10888583     0.84100
O21         O  0.85342639  0.97605056  0.11011766    -0.68000
O22         O  0.84068795  0.84593388  0.19333649    -0.87300
C23         C  0.84703659  0.95290044  0.09010129     0.84900
C24         C  0.79999503  0.99616542  0.10622564     1.06500
H25         H  0.83934471  0.88700592  0.12481883     0.38300
O26         O  0.83100015  0.89422778  0.14319864    -1.10000
O27         O  0.82908343  0.91484171  0.21038965    -0.66600
Ni28       Ni  0.84522539  0.92457254  0.17147683     1.26300
O29         O  0.82978418  0.93993306  0.09287546    -0.66900
O30         O  0.86309501  0.88754933  0.18131882    -0.79200
C31         C  0.86526770  0.98700463  0.19290372     0.84300
O32         O  0.85973944  0.95530244  0.19890908    -0.66300
Ni33       Ni  0.81982395  0.85198020  0.16281490     1.27400
Ni34       Ni  0.81304954  0.93059903  0.13117699     1.26100
H35         H  0.81855246  0.96777093  0.17827701     0.38800
C36         C  0.68796594  0.70263777  0.93490984     0.80000
N37         N  0.69542175  0.69456881  0.90438220    -0.78300
C38         C  0.71144717  0.71239770  0.89213690     0.82400
N39         N  0.72044290  0.73721951  0.91097519    -0.78300
C40         C  0.71316266  0.74524435  0.94128544     0.82500
N41         N  0.69722090  0.72759924  0.95319603    -0.80000
C42         C  0.96763838  0.63208718  0.30101896     0.02900
C43         C  0.95967961  0.66170837  0.28510044    -0.13300
C44         C  0.94678747  0.68502672  0.30199007     0.00400
C45         C  0.94208358  0.67895501  0.33500087    -0.11800
C46         C  0.95027296  0.65010310  0.35140125     0.02900
C47         C  0.96284343  0.62642959  0.33430898    -0.11200
H48         H  0.96345150  0.66659930  0.25958428     0.08500
H49         H  0.93166276  0.69631442  0.34783580     0.06000
H50         H  0.96887023  0.60368608  0.34688786     0.05900
O51         O  0.08608962  0.51045175  0.26114577    -0.81100
O52         O  0.14526645  0.40948642  0.33386394    -0.65800
O53         O  0.11725258  0.46618123  0.27449000    -1.12400
C54         C  0.08726059  0.35711507  0.24897972     1.05800
O55         O  0.15125202  0.36475403  0.29908182    -0.79000
O56         O  0.13926913  0.38459290  0.23826582    -0.66600
Ni57       Ni  0.10637418  0.50985589  0.29222701     1.34900
C58         C  0.13047179  0.40456066  0.21842874     0.84500
O59         O  0.14854242  0.47681083  0.31564740    -0.79600
O60         O  0.12546536  0.51702272  0.32538962    -0.89800
C61         C  0.15426375  0.38089801  0.32610736     0.84100
O62         O  0.09016327  0.48339821  0.32183858    -0.68000
O63         O  0.10491809  0.34595843  0.24904639    -0.87300
C64         C  0.09625627  0.46183461  0.34318237     0.84900
C65         C  0.14282580  0.50605326  0.32836340     1.06500
H66         H  0.10725542  0.39211875  0.31165029     0.38300
O67         O  0.11508144  0.40005433  0.29287010    -1.10000
O68         O  0.11365795  0.41792932  0.22514826    -0.66600
Ni69       Ni  0.09912271  0.42765554  0.26566275     1.26300
O70         O  0.11343068  0.44820674  0.34138456    -0.66900
O71         O  0.08223011  0.38830948  0.25849863    -0.79200
C72         C  0.07737910  0.48842000  0.24272740     0.84300
O73         O  0.08199689  0.45559440  0.24004304    -0.66300
Ni74       Ni  0.12764008  0.35871255  0.27411082     1.27400
Ni75       Ni  0.13158159  0.43845359  0.30464567     1.26100
H76         H  0.12539133  0.47160399  0.25570960     0.38800
C77         C  0.24215087  0.19742183  0.50449309     0.80000
N78         N  0.23719537  0.22724565  0.48788544    -0.78300
C79         C  0.22299772  0.24962553  0.49974501     0.82400
N80         N  0.21344120  0.24136440  0.52838975    -0.78300
C81         C  0.21804432  0.21131942  0.54518626     0.82500
N82         N  0.23232908  0.18917815  0.53291234    -0.80000
C83         C  0.98078398  0.41307016  0.57439110     0.02900
C84         C  0.99076368  0.41965853  0.54455365    -0.13300
C85         C  0.00779812  0.40062298  0.53582117     0.00400
C86         C  0.01480347  0.37452289  0.55698132    -0.11800
C87         C  0.00514648  0.36795962  0.58715842     0.02900
C88         C  0.98796604  0.38698538  0.59558102    -0.11200
H89         H  0.98547755  0.44013509  0.52836120     0.08500
H90         H  0.02816239  0.36020946  0.55049500     0.06000
H91         H  0.98062939  0.38248039  0.61906881     0.05900
O92         O  0.86409685  0.58677346  0.66792156    -0.81100
O93         O  0.81620736  0.73160928  0.65009625    -0.65800
O94         O  0.83381411  0.63426473  0.64815088    -1.12400
C95         C  0.87206762  0.66241564  0.55693582     1.05800
O96         O  0.82413314  0.74734374  0.59886362    -0.79000
O97         O  0.81953009  0.68095143  0.57297616    -0.66600
Ni98       Ni  0.84116736  0.61108473  0.68759875     1.34900
C99         C  0.82076366  0.64694375  0.57223477     0.84500
O100        O  0.80469515  0.67288266  0.68078757    -0.79600
O101        O  0.81891097  0.63155750  0.71172603    -0.89800
C102        C  0.81557374  0.75320467  0.62629119     0.84100
O103        O  0.85765173  0.64892132  0.70210793    -0.68000
O104        O  0.85779211  0.68289427  0.55156943    -0.87300
C105        C  0.85468226  0.68255286  0.70226859     0.84900
C106        C  0.80535868  0.65427451  0.70669198     1.06500
H107        H  0.85727109  0.70461854  0.62923967     0.38300
O108        O  0.84692049  0.69113582  0.61923190    -1.10000
O109        O  0.83551452  0.63014071  0.58277957    -0.66600
Ni110      Ni  0.85404431  0.64172969  0.61631125     1.26300
O111        O  0.84193017  0.69741887  0.68490590    -0.66900
O112        O  0.87471170  0.64954246  0.58492816    -0.79200
C113        C  0.86829831  0.57728381  0.63845659     0.84300
O114        O  0.86048151  0.59263760  0.61480982    -0.66300
Ni115      Ni  0.84095498  0.71285888  0.57837969     1.27400
Ni116      Ni  0.82535981  0.68291549  0.64996446     1.26100
H117        H  0.82347584  0.61995895  0.63902260     0.38800
C118        C  0.72272692  0.95797428  0.47327324     0.80000
N119        N  0.72906640  0.93642116  0.49723457    -0.78300
C120        C  0.74443186  0.91412221  0.49152291     0.82400
N121        N  0.75323757  0.91298412  0.46121619    -0.78300
C122        C  0.74709376  0.93480821  0.43700434     0.82500
N123        N  0.73182415  0.95737369  0.44332194    -0.80000
C124        C  0.95727634  0.89532987  0.85204062     0.02900
C125        C  0.94810498  0.90356270  0.88233020    -0.13300
C126        C  0.93120763  0.88492523  0.89277527     0.00400
C127        C  0.92345422  0.85824916  0.87250570    -0.11800
C128        C  0.93280141  0.84896716  0.84254707     0.02900
C129        C  0.94967876  0.86797824  0.83233391    -0.11200
H130        H  0.95385254  0.92498466  0.89738071     0.08500
H131        H  0.90982345  0.84526664  0.87982096     0.06000
H132        H  0.95679415  0.86187179  0.80890813     0.05900
O133        O  0.06156795  0.09494156  0.76457757    -0.81100
O134        O  0.10940014  0.23899669  0.79113604    -0.65800
O135        O  0.09110523  0.14212465  0.78789945    -1.12400
C136        C  0.05267573  0.17022497  0.88062474     1.05800
O137        O  0.10464821  0.24917884  0.84468499    -0.79000
O138        O  0.10684512  0.18044244  0.86481228    -0.66600
Ni139      Ni  0.08429522  0.12091115  0.74675021     1.34900
C140        C  0.10401835  0.14679181  0.86404776     0.84500
O141        O  0.12062127  0.18242360  0.75679969    -0.79600
O142        O  0.10684540  0.14186680  0.72403632    -0.89800
C143        C  0.11178758  0.25759317  0.81681179     0.84100
O144        O  0.06799787  0.15948536  0.73338666    -0.68000
O145        O  0.06868998  0.18520967  0.88783271    -0.87300
C146        C  0.07032954  0.19325750  0.73634960     0.84900
C147        C  0.12064768  0.16368580  0.73069823     1.06500
H148        H  0.06890776  0.21278117  0.81275462     0.38300
O149        O  0.07919943  0.19755844  0.82093397    -1.10000
O150        O  0.08846643  0.13271108  0.85323894    -0.66600
Ni151      Ni  0.07070149  0.14878050  0.82032408     1.26300
O152        O  0.08287301  0.20738075  0.75507685    -0.66900
O153        O  0.05009009  0.15681988  0.85245626    -0.79200
C154        C  0.05736890  0.08360424  0.79333515     0.84300
O155        O  0.06299568  0.10024811  0.81841364    -0.66300
Ni156      Ni  0.08662703  0.21513633  0.86300624     1.27400
Ni157      Ni  0.10002749  0.19070405  0.78858094     1.26100
H158        H  0.10123758  0.12741313  0.79645484     0.38800
C159        C  0.20815045  0.47735178  0.95219687     0.80000
N160        N  0.20006835  0.45595221  0.92926284    -0.78300
C161        C  0.18519100  0.43346750  0.93750297     0.82400
N162        N  0.17821739  0.43268905  0.96890082    -0.78300
C163        C  0.18583356  0.45453032  0.99209134     0.82500
N164        N  0.20102261  0.47676889  0.98368178    -0.80000
C165        C  0.45862053  0.72277625  0.11579690     0.02900
C166        C  0.45272668  0.71337186  0.08428256    -0.13300
C167        C  0.43593928  0.72853669  0.07140764     0.00400
C168        C  0.42499885  0.75324647  0.09039188    -0.11800
C169        C  0.43089877  0.76346553  0.12164341     0.02900
C170        C  0.44777847  0.74813037  0.13437558    -0.11200
H171        H  0.46104489  0.69373387  0.07000181     0.08500
H172        H  0.41165825  0.76428520  0.08099283     0.06000
H173        H  0.45236101  0.75564399  0.15863276     0.05900
O174        O  0.57454411  0.54809488  0.18697325    -0.81100
O175        O  0.63692787  0.42447563  0.14837348    -0.65800
O176        O  0.60749823  0.51166454  0.16053936    -1.12400
C177        C  0.57404119  0.46127600  0.06933716     1.05800
O178        O  0.64100334  0.44161909  0.09767879    -0.79000
O179        O  0.62111330  0.48946481  0.06411933    -0.66600
Ni180      Ni  0.59666497  0.52249059  0.20326760     1.34900
C181        C  0.61612957  0.52105094  0.07247323     0.84500
O182        O  0.63996823  0.48007016  0.18995769    -0.79600
O183        O  0.61777118  0.50079586  0.22631606    -0.89800
C184        C  0.64483103  0.41981084  0.12014595     0.84100
O185        O  0.58217817  0.47896402  0.20359744    -0.68000
O186        O  0.58970998  0.44365131  0.06305759    -0.87300
C187        C  0.58881209  0.44738868  0.19938502     0.84900
C188        C  0.63490777  0.48970752  0.21878383     1.06500
H189        H  0.59634641  0.43697084  0.12984152     0.38300
O190        O  0.60453045  0.45680092  0.12282889    -1.10000
O191        O  0.60436434  0.52748973  0.09637934    -0.66600
Ni192      Ni  0.58925815  0.49872978  0.12693664     1.26300
O193        O  0.60576910  0.44092980  0.18668125    -0.66900
O194        O  0.57193504  0.48375954  0.09300816    -0.79200
C195        C  0.56738468  0.55486741  0.15936131     0.84300
O196        O  0.57344210  0.54015244  0.13293941    -0.66300
Ni197      Ni  0.61519222  0.44313232  0.08121981     1.27400
Ni198      Ni  0.62238095  0.46797587  0.15625714     1.26100
H199        H  0.61565287  0.53162048  0.15354068     0.38800
C200        C  0.70413914  0.14773397  0.98876618     0.80000
N201        N  0.69961067  0.17656538  0.00776964    -0.78300
C202        C  0.68959458  0.20452221  0.99588255     0.82400
N203        N  0.68369867  0.20333218  0.96439864    -0.78300
C204        C  0.68811894  0.17451083  0.94477331     0.82500
N205        N  0.69866821  0.14694499  0.95703942    -0.80000
C206        C  0.48257762  0.20885271  0.31369854     0.02900
C207        C  0.48997333  0.20060179  0.34437137    -0.13300
C208        C  0.50662725  0.21808301  0.35544371     0.00400
C209        C  0.51618184  0.24335789  0.33559606    -0.11800
C210        C  0.50903029  0.25180403  0.30487630     0.02900
C211        C  0.49211719  0.23458532  0.29390058    -0.11200
H212        H  0.48259061  0.18095494  0.35983610     0.08500
H213        H  0.52920116  0.25669063  0.34421282     0.06000
H214        H  0.48621463  0.24166772  0.27052417     0.05900
O215        O  0.35929587  0.05099053  0.24691941    -0.81100
O216        O  0.29297752  0.93040250  0.26908775    -0.65800
O217        O  0.32417774  0.01645410  0.26563999    -1.12400
C218        C  0.35133115  0.95953926  0.35953994     1.05800
O219        O  0.28653430  0.94814664  0.31915102    -0.79000
O220        O  0.30599153  0.99027747  0.36115276    -0.66600
Ni221      Ni  0.33782180  0.02826412  0.22545432     1.34900
C222        C  0.31192845  0.02196938  0.35577666     0.84500
O223        O  0.29360990  0.98666053  0.22828976    -0.79600
O224        O  0.31793755  0.00921738  0.19759335    -0.89800
C225        C  0.28400061  0.92556713  0.29636947     0.84100
O226        O  0.35149225  0.98399195  0.22480586    -0.68000
O227        O  0.33525389  0.94201445  0.36201660    -0.87300
C228        C  0.34454178  0.95241955  0.22721362     0.84900
C229        C  0.30053239  0.99726575  0.20084197     1.06500
H230        H  0.33239917  0.94073536  0.29495743     0.38300
O231        O  0.32400100  0.96050574  0.30141823    -1.10000
O232        O  0.32346143  0.02992966  0.33190313    -0.66600
Ni233      Ni  0.33982748  0.00164435  0.30211408     1.26300
O234        O  0.32691547  0.94605394  0.23705922    -0.66900
O235        O  0.35463772  0.98418146  0.33828949    -0.79200
C236        C  0.36476380  0.05653347  0.27596031     0.84300
O237        O  0.35651689  0.04231569  0.30080106    -0.66300
Ni238      Ni  0.31090941  0.94527296  0.34028648     1.27400
Ni239      Ni  0.30861185  0.97326721  0.26510573     1.26100
H240        H  0.31588042  0.03647082  0.27208925     0.38800
C241        C  0.23247014  0.66531027  0.45020507     0.80000
N242        N  0.23890120  0.66645338  0.48122635    -0.78300
C243        C  0.24997583  0.69457650  0.49129562     0.82400
N244        N  0.25436723  0.72167831  0.47011445    -0.78300
C245        C  0.24800023  0.72074768  0.43893916     0.82500
N246        N  0.23715716  0.69226206  0.42937080    -0.80000
C247        C  0.47974898  0.43642703  0.82319308     0.02900
C248        C  0.48958877  0.41285199  0.80149582    -0.13300
C249        C  0.50611989  0.39410475  0.81155889     0.00400
C250        C  0.51247423  0.39895049  0.84364557    -0.11800
C251        C  0.50270913  0.42257148  0.86537138     0.02900
C252        C  0.48623293  0.44103157  0.85512051    -0.11200
H253        H  0.48436256  0.40913284  0.77694286     0.08500
H254        H  0.52525972  0.38471754  0.85162868     0.06000
H255        H  0.47876940  0.45970272  0.87166308     0.05900
O256        O  0.29765425  0.73026535  0.83211757    -0.81100
O257        O  0.35607771  0.61054779  0.80732754    -0.65800
O258        O  0.33424518  0.70354955  0.81576782    -1.12400
C259        C  0.31137340  0.67986846  0.71002847     1.05800
O260        O  0.36814175  0.62146603  0.75764571    -0.79000
O261        O  0.36116495  0.68569844  0.73138587    -0.66600
Ni262      Ni  0.32077983  0.71830682  0.85498752     1.34900
C263        C  0.35643380  0.71780288  0.73820613     0.84500
O264        O  0.35819449  0.66122243  0.85354294    -0.79600
O265        O  0.34315608  0.70724128  0.87999671    -0.89800
C266        C  0.36854988  0.60443350  0.78450334     0.84100
O267        O  0.30883405  0.67404580  0.86727538    -0.68000
O268        O  0.32668012  0.66039052  0.70695612    -0.87300
C269        C  0.31040084  0.64228203  0.85631961     0.84900
C270        C  0.35646155  0.68334458  0.87745074     1.06500
H271        H  0.32114364  0.63648434  0.77457227     0.38300
O272        O  0.33152290  0.65405101  0.77279824    -1.10000
O273        O  0.34066362  0.72626513  0.75356335    -0.66600
Ni274      Ni  0.31997687  0.70059881  0.77637908     1.26300
O275        O  0.32299100  0.63290357  0.83440735    -0.66900
O276        O  0.30617153  0.69569396  0.73663136    -0.79200
C277        C  0.29795185  0.75269688  0.80895779     0.84300
O278        O  0.30831016  0.74674015  0.78327691    -0.66300
Ni279      Ni  0.34671262  0.64206947  0.73438602     1.27400
Ni280      Ni  0.34488859  0.65676008  0.81300438     1.26100
H281        H  0.34498446  0.72020708  0.81260681     0.38800
C282        C  0.21331867  0.99508069  0.94307198     0.80000
N283        N  0.21977727  0.99677691  0.97414291    -0.78300
C284        C  0.23609664  0.97856413  0.98235977     0.82400
N285        N  0.24574994  0.95832319  0.95921092    -0.78300
C286        C  0.23969655  0.95730181  0.92782519     0.82500
N287        N  0.22346051  0.97576862  0.92012653    -0.80000
C288        C  0.46139297  0.93395560  0.58849206     0.02900
C289        C  0.45177540  0.93825031  0.55894858    -0.13300
C290        C  0.43466091  0.91893288  0.55292200     0.00400
C291        C  0.42712857  0.89523935  0.57646628    -0.11800
C292        C  0.43673491  0.89025737  0.60585105     0.02900
C293        C  0.45376195  0.90999652  0.61205429    -0.11200
H294        H  0.45748614  0.95690875  0.54079252     0.08500
H295        H  0.41375267  0.88056320  0.57187556     0.06000
H296        H  0.46097264  0.90684845  0.63509211     0.05900
O297        O  0.64794196  0.21583595  0.60059247    -0.81100
O298        O  0.58445719  0.11006333  0.61654928    -0.65800
O299        O  0.61034319  0.19914300  0.61644408    -1.12400
C300        C  0.63190742  0.16636484  0.71978669     1.05800
O301        O  0.57434270  0.11212025  0.66853032    -0.79000
O302        O  0.58143937  0.17936864  0.69268593    -0.66600
Ni303      Ni  0.62398910  0.21439997  0.57787370     1.34900
C304        C  0.58848203  0.21095953  0.69107660     0.84500
O305        O  0.58438983  0.16484954  0.57532107    -0.79600
O306        O  0.60033482  0.21267949  0.55402104    -0.89800
C307        C  0.57337034  0.09917330  0.63959060     0.84100
O308        O  0.63173954  0.16956809  0.55892352    -0.68000
O309        O  0.61456054  0.15347587  0.72218230    -0.87300
C310        C  0.62909309  0.13753086  0.56810614     0.84900
C311        C  0.58641225  0.18967651  0.55400186     1.06500
H312        H  0.62012141  0.12632826  0.65176554     0.38300
O313        O  0.61089513  0.14569463  0.65504235    -1.10000
O314        O  0.60589268  0.21720332  0.68052427    -0.66600
Ni315      Ni  0.62504192  0.19007131  0.65463900     1.26300
O316        O  0.61780384  0.12920230  0.59198923    -0.66900
O317        O  0.63909525  0.17900139  0.69313079    -0.79200
C318        C  0.64959955  0.23837005  0.62364156     0.84300
O319        O  0.63962174  0.23410135  0.65005781    -0.66300
Ni320      Ni  0.59511660  0.13479744  0.69290433     1.27400
Ni321      Ni  0.59743157  0.15457443  0.61545470     1.26100
H322        H  0.60062311  0.21725269  0.62148519     0.38800
C323        C  0.71829207  0.48821109  0.47480669     0.80000
N324        N  0.71177851  0.48909029  0.44375540    -0.78300
C325        C  0.69856515  0.46431836  0.43347255     0.82400
N326        N  0.69235921  0.43791664  0.45422970    -0.78300
C327        C  0.69918598  0.43633603  0.48504280     0.82500
N328        N  0.71191106  0.46171584  0.49492406    -0.80000
C329        C  0.68100988  0.34875554  0.52339639    -0.11600
C330        C  0.68197855  0.35727614  0.55682074     0.14900
C331        C  0.68889749  0.39130132  0.56633798     0.01800
C332        C  0.69377803  0.41651783  0.54234593    -0.16000
C333        C  0.69285469  0.40824786  0.50870003    -0.10800
C334        C  0.68674852  0.37343519  0.49930118     0.08500
C335        C  0.67561971  0.32979680  0.58078421     0.09600
S336        S  0.69216645  0.40409639  0.60850405    -0.25100
H337        H  0.69863438  0.44281993  0.55023480     0.19800
S338        S  0.68703005  0.35785462  0.45746316    -0.30800
H339        H  0.67606980  0.32230062  0.51604189     0.10200
C340        C  0.65798919  0.33315387  0.59939691     0.03400
C341        C  0.65106215  0.30385858  0.61782564    -0.13100
C342        C  0.66105400  0.27102355  0.61681645    -0.08800
C343        C  0.67938503  0.26871222  0.60005881     0.06800
C344        C  0.68649112  0.29810698  0.58234812    -0.13900
S345        S  0.64311098  0.37291222  0.59647027    -0.30800
H346        H  0.63679615  0.30525438  0.63002871     0.11100
S347        S  0.69356851  0.22795808  0.59814242    -0.27900
H348        H  0.70012446  0.29565471  0.56827452     0.08300
H349        H  0.70562728  0.37236435  0.44978111     0.26700
H350        H  0.62861434  0.36275340  0.61977505     0.21500
H351        H  0.68550110  0.21311064  0.62708968     0.26800
H352        H  0.69550571  0.36936433  0.62021732     0.15700
C353        C  0.51273200  0.96401771  0.60957388    -0.11600
C354        C  0.51046564  0.00140074  0.60967105     0.14900
C355        C  0.49240652  0.01634498  0.60116079     0.01800
C356        C  0.47668848  0.99365580  0.59466843    -0.16000
C357        C  0.47876010  0.95620789  0.59517900    -0.10800
C358        C  0.49716654  0.94125404  0.60192918     0.08500
C359        C  0.52713631  0.02426386  0.61871870     0.09600
S360        S  0.48855176  0.06406161  0.59805597    -0.25100
H361        H  0.46269570  0.00531537  0.58902809     0.19800
S362        S  0.50190328  0.89366560  0.60030949    -0.30800
H363        H  0.52675564  0.95255827  0.61531289     0.10200
C364        C  0.52721840  0.04299541  0.64873335     0.03400
C365        C  0.54274229  0.06638202  0.65526452    -0.13100
C366        C  0.55816119  0.07184566  0.63219893    -0.08800
C367        C  0.55817154  0.05182609  0.60239516     0.06800
C368        C  0.54278987  0.02820607  0.59625625    -0.13900
S369        S  0.50749144  0.03715796  0.67866137    -0.30800
H370        H  0.54258131  0.08106979  0.67820710     0.11100
S371        S  0.57722046  0.05461206  0.57104238    -0.27900
H372        H  0.54271796  0.01348054  0.57328038     0.08300
H373        H  0.48824505  0.88547606  0.57630648     0.26700
H374        H  0.51419921  0.06223633  0.70167600     0.21500
H375        H  0.57112877  0.08876482  0.56100976     0.26800
H376        H  0.50765669  0.07243618  0.58683339     0.15700
C377        C  0.26131082  0.81938593  0.84245024    -0.11600
C378        C  0.27175293  0.85156096  0.83819969     0.14900
C379        C  0.28932091  0.85153871  0.81907545     0.01800
C380        C  0.29679278  0.81892451  0.80693355    -0.16000
C381        C  0.28702655  0.78641983  0.81343809    -0.10800
C382        C  0.26858433  0.78702606  0.82988529     0.08500
C383        C  0.26486723  0.88323607  0.85725503     0.09600
S384        S  0.30330960  0.89174435  0.81066762    -0.25100
H385        H  0.31092299  0.81869566  0.79416537     0.19800
S386        S  0.25394633  0.74721984  0.83651290    -0.30800
H387        H  0.24770653  0.81926445  0.85678600     0.10200
C388        C  0.24620834  0.89784224  0.85281263     0.03400
C389        C  0.23864826  0.92276837  0.87561301    -0.13100
C390        C  0.24959798  0.93442761  0.90238566    -0.08800
C391        C  0.26918204  0.92259834  0.90448206     0.06800
C392        C  0.27634157  0.89636276  0.88259870    -0.13900
S393        S  0.23194444  0.88447217  0.81824787    -0.30800
H394        H  0.22385675  0.93227241  0.87297565     0.11100
S395        S  0.28603295  0.94061964  0.93345754    -0.27900
H396        H  0.29092431  0.88578832  0.88555053     0.08300
H397        H  0.26105843  0.72889557  0.80838767     0.26700
H398        H  0.21702894  0.91007701  0.82298363     0.21500
H399        H  0.27926855  0.97610057  0.93092009     0.26800
H400        H  0.28770926  0.91596713  0.81498072     0.15700
C401        C  0.41408879  0.80698129  0.64331204    -0.11600
C402        C  0.40590717  0.82096082  0.67254720     0.14900
C403        C  0.40977332  0.85693758  0.68145101     0.01800
C404        C  0.42082683  0.87865035  0.66000966    -0.16000
C405        C  0.42831566  0.86501512  0.63010560    -0.10800
C406        C  0.42542055  0.82844937  0.62222606     0.08500
C407        C  0.39305890  0.79727556  0.69251263     0.09600
S408        S  0.40046014  0.87704447  0.71905821    -0.25100
H409        H  0.42302855  0.90669528  0.66614987     0.19800
S410        S  0.43559339  0.80781593  0.58544680    -0.30800
H411        H  0.41138679  0.77921657  0.63667711     0.10200
C412        C  0.37253221  0.80078325  0.69282135     0.03400
C413        C  0.36090459  0.77564310  0.70984031    -0.13100
C414        C  0.36939821  0.74677052  0.72603720    -0.08800
C415        C  0.39000213  0.74435488  0.72687866     0.06800
C416        C  0.40157810  0.76934326  0.70978315    -0.13900
S417        S  0.36111643  0.83579828  0.66984430    -0.30800
H418        H  0.34512103  0.77736920  0.70910341     0.11100
S419        S  0.40237423  0.71035878  0.74956160    -0.27900
H420        H  0.41737312  0.76692271  0.70975127     0.08300
H421        H  0.45207533  0.83041875  0.58267720     0.26700
H422        H  0.34161700  0.82630771  0.67776331     0.21500
H423        H  0.38772063  0.70711089  0.77430039     0.26800
H424        H  0.39887997  0.84518445  0.73711118     0.15700
C425        C  0.57050378  0.29910749  0.72972091    -0.11600
C426        C  0.55022678  0.29371148  0.73018982     0.14900
C427        C  0.54255024  0.26282156  0.71507168     0.01800
C428        C  0.55533614  0.23685470  0.70186382    -0.16000
C429        C  0.57579933  0.24132008  0.70248748    -0.10800
C430        C  0.58332921  0.27362558  0.71584528     0.08500
C431        C  0.53778780  0.31862527  0.74996902     0.09600
S432        S  0.51661239  0.25454155  0.71296651    -0.25100
H433        H  0.54918878  0.21275118  0.69123876     0.19800
S434        S  0.60906611  0.28288801  0.71864465    -0.30800
H435        H  0.57642790  0.32283566  0.74137564     0.10200
C436        C  0.53068322  0.30888492  0.78137454     0.03400
C437        C  0.52006266  0.33383612  0.80047000    -0.13100
C438        C  0.51672167  0.36874394  0.78923416    -0.08800
C439        C  0.52408395  0.37857672  0.75778940     0.06800
C440        C  0.53432092  0.35328218  0.73840420    -0.13900
S441        S  0.53583048  0.26511419  0.79773223    -0.30800
H442        H  0.51447103  0.32628019  0.82451400     0.11100
S443        S  0.52199048  0.42329195  0.74169501    -0.27900
H444        H  0.54013874  0.36095121  0.71450401     0.08300
H445        H  0.61199586  0.28423866  0.68444722     0.26700
H446        H  0.52719695  0.27093067  0.82898703     0.21500
H447        H  0.52369341  0.44108231  0.77195122     0.26800
H448        H  0.51113341  0.29086112  0.71229552     0.15700
C449        C  0.42860682  0.47120429  0.81124058    -0.11600
C450        C  0.43269168  0.50529377  0.79834839     0.14900
C451        C  0.45235512  0.51573679  0.79220880     0.01800
C452        C  0.46736646  0.49165572  0.79866386    -0.16000
C453        C  0.46324581  0.45795785  0.81227192    -0.10800
C454        C  0.44364389  0.44751335  0.81845093     0.08500
C455        C  0.41613046  0.53000675  0.79408877     0.09600
S456        S  0.45942098  0.55979680  0.77794285    -0.25100
H457        H  0.48246001  0.49990760  0.79456444     0.19800
S458        S  0.43683909  0.40535968  0.83710305    -0.30800
H459        H  0.41355420  0.46333241  0.81639912     0.10200
C460        C  0.41032116  0.54102206  0.76304945     0.03400
C461        C  0.39465893  0.56493876  0.76081394    -0.13100
C462        C  0.38447948  0.57795729  0.78897195    -0.08800
C463        C  0.39026709  0.56621186  0.82017421     0.06800
C464        C  0.40596693  0.54236606  0.82217587    -0.13900
S465        S  0.42252970  0.52403275  0.72630305    -0.30800
H466        H  0.39025995  0.57336338  0.73686601     0.11100
S467        S  0.37850354  0.58175318  0.85791514    -0.27900
H468        H  0.41060683  0.53344140  0.84584882     0.08300
H469        H  0.45371261  0.38617710  0.82744862     0.26700
H470        H  0.41198220  0.54422812  0.70392331     0.21500
H471        H  0.39087015  0.56456116  0.87970650     0.26800
H472        H  0.44318032  0.57838536  0.79130770     0.15700
C473        C  0.28210181  0.70673990  0.56492190    -0.11600
C474        C  0.26999121  0.69267818  0.58995748     0.14900
C475        C  0.25102056  0.68049379  0.58275045     0.01800
C476        C  0.24475413  0.68231837  0.55051468    -0.16000
C477        C  0.25712329  0.69529127  0.52510042    -0.10800
C478        C  0.27608726  0.70753935  0.53259722     0.08500
C479        C  0.27858142  0.68814016  0.62230722     0.09600
S480        S  0.23406933  0.66231394  0.61313357    -0.25100
H481        H  0.23015102  0.67302226  0.54514527     0.19800
S482        S  0.29399120  0.72152340  0.50198299    -0.30800
H483        H  0.29680035  0.71546009  0.57038907     0.10200
C484        C  0.28869857  0.65651241  0.62951225     0.03400
C485        C  0.29874985  0.65438425  0.65871115    -0.13100
C486        C  0.29923422  0.68349679  0.68080185    -0.08800
C487        C  0.28886122  0.71518116  0.67350034     0.06800
C488        C  0.27845428  0.71692655  0.64455213    -0.13900
S489        S  0.28926648  0.61922035  0.60094667    -0.30800
H490        H  0.30656722  0.63002415  0.66410518     0.11100
S491        S  0.28957329  0.75522847  0.69845519    -0.27900
H492        H  0.27094185  0.74147420  0.63857764     0.08300
H493        H  0.28935592  0.69430868  0.47942566     0.26700
H494        H  0.29955749  0.59537553  0.62057176     0.21500
H495        H  0.30985237  0.75350199  0.70311003     0.26800
H496        H  0.24754329  0.65335288  0.63690363     0.15700
C497        C  0.24991595  0.01218349  0.06707444    -0.11600
C498        C  0.25831556  0.98137085  0.08009299     0.14900
C499        C  0.25874801  0.94936258  0.06129082     0.01800
C500        C  0.25126609  0.94922076  0.02974737    -0.16000
C501        C  0.24332421  0.98033451  0.01624527    -0.10800
C502        C  0.24280139  0.01226282  0.03530008     0.08500
C503        C  0.26889056  0.98507715  0.11111935     0.09600
S504        S  0.26931763  0.90819222  0.07546771    -0.25100
H505        H  0.25175007  0.92454396  0.01553537     0.19800
S506        S  0.23509404  0.05483697  0.01960035    -0.30800
H507        H  0.25000623  0.03701109  0.08107171     0.10200
C508        C  0.28932579  0.98958381  0.11061471     0.03400
C509        C  0.29902263  0.99355053  0.14012815    -0.13100
C510        C  0.28877603  0.99423361  0.17060967    -0.08800
C511        C  0.26805432  0.99143183  0.17077173     0.06800
C512        C  0.25842982  0.98631091  0.14116977    -0.13900
S513        S  0.30311842  0.99090198  0.07220900    -0.30800
H514        H  0.31481459  0.99580390  0.13927781     0.11100
S515        S  0.25292290  0.99615249  0.20736743    -0.27900
H516        H  0.24261997  0.98401829  0.14147110     0.08300
H517        H  0.24428064  0.04990241  0.98862061     0.26700
H518        H  0.32064405  0.00400036  0.08503438     0.21500
H519        H  0.26356838  0.02551901  0.21950122     0.26800
H520        H  0.26786934  0.91603749  0.10911195     0.15700
C521        C  0.38137170  0.91283455  0.42350580    -0.11600
C522        C  0.39257647  0.94151658  0.43500008     0.14900
C523        C  0.39182892  0.97501048  0.41922844     0.01800
C524        C  0.37866007  0.97983633  0.39410240    -0.16000
C525        C  0.36659753  0.95167836  0.38354458    -0.10800
C526        C  0.36863560  0.91728493  0.39762817     0.08500
C527        C  0.40346883  0.93626317  0.46520485     0.09600
S528        S  0.40665947  0.01306521  0.43059855    -0.25100
H529        H  0.37735322  0.00623047  0.38352613     0.19800
S530        S  0.35543077  0.87859525  0.38278603    -0.30800
H531        H  0.38226447  0.88711089  0.43551397     0.10200
C532        C  0.39543116  0.94710109  0.49584683     0.03400
C533        C  0.40591251  0.94095711  0.52415089    -0.13100
C534        C  0.42421889  0.92409659  0.52235704    -0.08800
C535        C  0.43207838  0.91262122  0.49171095     0.06800
C536        C  0.42166035  0.91900195  0.46340856    -0.13900
S537        S  0.37166623  0.96814000  0.49890244    -0.30800
H538        H  0.39990807  0.94933304  0.54780570     0.11100
S539        S  0.45503752  0.88909022  0.48727229    -0.27900
H540        H  0.42765225  0.91018465  0.43986107     0.08300
H541        H  0.36549771  0.85258222  0.40042596     0.26700
H542        H  0.37163553  0.97496290  0.53279438     0.21500
H543        H  0.45383096  0.87175059  0.51769453     0.26800
H544        H  0.42052522  0.99462073  0.44863196     0.15700
C545        C  0.27590173  0.82885405  0.31816626    -0.11600
C546        C  0.26101683  0.83259103  0.34236218     0.14900
C547        C  0.25097654  0.86554181  0.34546717     0.01800
C548        C  0.25738725  0.89487853  0.32690185    -0.16000
C549        C  0.27342035  0.89206717  0.30470870    -0.10800
C550        C  0.28194013  0.85800059  0.29888197     0.08500
C551        C  0.25801228  0.80353992  0.36661145     0.09600
S552        S  0.23080190  0.87256063  0.37428539    -0.25100
H553        H  0.25063484  0.92080327  0.33142730     0.19800
S554        S  0.30221124  0.85105886  0.27041477    -0.30800
H555        H  0.28360038  0.80357251  0.31550629     0.10200
C556        C  0.25134003  0.76928859  0.35758927     0.03400
C557        C  0.24871506  0.74296835  0.38160678    -0.13100
C558        C  0.25251150  0.74989056  0.41486362    -0.08800
C559        C  0.25961102  0.78440004  0.42365468     0.06800
C560        C  0.26238621  0.81050053  0.39935568    -0.13900
S561        S  0.24528501  0.75941782  0.31575253    -0.30800
H562        H  0.24335355  0.71687731  0.37422635     0.11100
S563        S  0.26491190  0.79663646  0.46535703    -0.27900
H564        H  0.26795617  0.83677180  0.40582319     0.08300
H565        H  0.29311924  0.86868856  0.24467201     0.26700
H566        H  0.24362606  0.72199559  0.31929325     0.21500
H567        H  0.26654359  0.83388228  0.46056067     0.26800
H568        H  0.22449130  0.83660895  0.37504974     0.15700
C569        C  0.52465579  0.22917425  0.44135635    -0.11600
C570        C  0.53487430  0.19695307  0.44487805     0.14900
C571        C  0.53409397  0.17032607  0.42014383     0.01800
C572        C  0.52368806  0.17713539  0.39195422    -0.16000
C573        C  0.51430662  0.21007184  0.38776193    -0.10800
C574        C  0.51440385  0.23606938  0.41306012     0.08500
C575        C  0.54805445  0.19411545  0.47260227     0.09600
S576        S  0.54718159  0.12839330  0.42166734    -0.25100
H577        H  0.52371923  0.15731026  0.37239965     0.19800
S578        S  0.50255085  0.27910135  0.41009442    -0.30800
H579        H  0.52534563  0.24967874  0.46024921     0.10200
C580        C  0.56773744  0.20486424  0.46917822     0.03400
C581        C  0.57976481  0.20327022  0.49620958    -0.13100
C582        C  0.57252254  0.19137008  0.52686132    -0.08800
C583        C  0.55260777  0.18088432  0.53015664     0.06800
C584        C  0.54066154  0.18217746  0.50294786    -0.13900
S585        S  0.57744146  0.22111454  0.43039377    -0.30800
H586        H  0.59497803  0.21111381  0.49334919     0.11100
S587        S  0.54125228  0.16732594  0.56848130    -0.27900
H588        H  0.52540217  0.17442781  0.50553895     0.08300
H589        H  0.48826593  0.26830394  0.38801510     0.26700
H590        H  0.59692767  0.22531140  0.43986547     0.21500
H591        H  0.55078643  0.19354401  0.58722032     0.26800
H592        H  0.55033777  0.12810841  0.45541739     0.15700
C593        C  0.44651483  0.14817768  0.27136659    -0.11600
C594        C  0.43003073  0.15208826  0.29233978     0.14900
C595        C  0.43043410  0.17672336  0.31866182     0.01800
C596        C  0.44753095  0.19613525  0.32402433    -0.16000
C597        C  0.46427475  0.19145599  0.30376949    -0.10800
C598        C  0.46373015  0.16756477  0.27689390     0.08500
C599        C  0.41326222  0.12793743  0.28776752     0.09600
S600        S  0.41014728  0.18320433  0.34740565    -0.25100
H601        H  0.44799738  0.21437796  0.34478039     0.19800
S602        S  0.48527311  0.15968126  0.25119369    -0.30800
H603        H  0.44603467  0.12896653  0.25138833     0.10200
C604        C  0.39839876  0.13641753  0.26614702     0.03400
C605        C  0.38266301  0.11266791  0.26275730    -0.13100
C606        C  0.38156491  0.08068140  0.28066291    -0.08800
C607        C  0.39678389  0.07187821  0.30177718     0.06800
C608        C  0.41241262  0.09582297  0.30529416    -0.13900
S609        S  0.39938942  0.17774926  0.24339965    -0.30800
H610        H  0.37108441  0.11910090  0.24631520     0.11100
S611        S  0.39729862  0.02909055  0.32220644    -0.27900
H612        H  0.42421252  0.08938045  0.32130438     0.08300
H613        H  0.47725143  0.13236162  0.23175118     0.26700
H614        H  0.38110560  0.17390699  0.22887364     0.21500
H615        H  0.41312359  0.03684364  0.34232640     0.26800
H616        H  0.39518720  0.17201703  0.32685517     0.15700
C617        C  0.65805358  0.18373781  0.86787248    -0.11600
C618        C  0.67020557  0.16688356  0.84421707     0.14900
C619        C  0.68837015  0.15295206  0.85357139     0.01800
C620        C  0.69386204  0.15620335  0.88630389    -0.16000
C621        C  0.68165944  0.17296010  0.91021576    -0.10800
C622        C  0.66345244  0.18688913  0.90064704     0.08500
C623        C  0.66285980  0.16378826  0.81047282     0.09600
S624        S  0.70529374  0.13089036  0.82528351    -0.25100
H625        H  0.70785482  0.14548107  0.89316529     0.19800
S626        S  0.64631486  0.20685324  0.92999220    -0.30800
H627        H  0.64407213  0.19401820  0.86052317     0.10200
C628        C  0.64956783  0.13649631  0.80226194     0.03400
C629        C  0.64021705  0.13772904  0.77222534    -0.13100
C630        C  0.64380378  0.16572160  0.74982807    -0.08800
C631        C  0.65802673  0.19205156  0.75751477     0.06800
C632        C  0.66737604  0.19070110  0.78763492    -0.13900
S633        S  0.64431571  0.10030329  0.83037540    -0.30800
H634        H  0.62982304  0.11685983  0.76631347     0.11100
S635        S  0.66408051  0.22926922  0.73121360    -0.27900
H636        H  0.67760835  0.21172965  0.79396474     0.08300
H637        H  0.63141373  0.21435795  0.90810976     0.26700
H638        H  0.63051875  0.08241727  0.81123825     0.21500
H639        H  0.64453352  0.23697143  0.72437374     0.26800
H640        H  0.69219527  0.12307835  0.80042621     0.15700
C641        C  0.66173355  0.50861435  0.29660791    -0.11600
C642        C  0.67036955  0.47528792  0.30218758     0.14900
C643        C  0.66907512  0.44781642  0.27832137     0.01800
C644        C  0.65838349  0.45384794  0.25013291    -0.16000
C645        C  0.64892849  0.48672408  0.24536599    -0.10800
C646        C  0.65117554  0.51470447  0.26849950     0.08500
C647        C  0.67841875  0.46933476  0.33485522     0.09600
S648        S  0.67952010  0.40390888  0.28338454    -0.25100
H649        H  0.65662522  0.43216593  0.23262345     0.19800
S650        S  0.64060558  0.55859558  0.26390648    -0.30800
H651        H  0.66276504  0.52977528  0.31483622     0.10200
C652        C  0.69802815  0.47731999  0.34163927     0.03400
C653        C  0.70426031  0.47536623  0.37400614    -0.13100
C654        C  0.69117154  0.46605549  0.39981676    -0.08800
C655        C  0.67140544  0.45869238  0.39278243     0.06800
C656        C  0.66538803  0.45979044  0.36043369    -0.13900
S657        S  0.71498007  0.49027588  0.30908268    -0.30800
H658        H  0.71937793  0.48114565  0.37926104     0.11100
S659        S  0.65273901  0.45070513  0.42400840    -0.27900
H660        H  0.65015161  0.45479938  0.35528995     0.08300
H661        H  0.64204138  0.55868230  0.22950727     0.26700
H662        H  0.73154546  0.49362950  0.32846784     0.21500
H663        H  0.66000179  0.47624274  0.44612993     0.26800
H664        H  0.69466509  0.41464404  0.30375733     0.15700
C665        C  0.53701106  0.47745982  0.00433112    -0.11600
C666        C  0.53303323  0.44217939  0.99433725     0.14900
C667        C  0.54051886  0.41325872  0.01218927     0.01800
C668        C  0.55258824  0.42038595  0.03853664    -0.16000
C669        C  0.55789123  0.45571449  0.04676270    -0.10800
C670        C  0.54965924  0.48451719  0.02978289     0.08500
C671        C  0.52446530  0.43707588  0.96190754     0.09600
S672        S  0.53639990  0.36685407  0.00135006    -0.25100
H673        H  0.55889034  0.39811846  0.05142723     0.19800
S674        S  0.55672022  0.53050279  0.03632212    -0.30800
H675        H  0.53155417  0.49967779  0.99031766     0.10200
C676        C  0.50526875  0.42439150  0.95774157     0.03400
C677        C  0.49828905  0.42045186  0.92593050    -0.13100
C678        C  0.51021434  0.42891582  0.89841321    -0.08800
C679        C  0.52928146  0.44238400  0.90289645     0.06800
C680        C  0.53622524  0.44587317  0.93445048    -0.13900
S681        S  0.48968180  0.41366924  0.99273536    -0.30800
H682        H  0.48360419  0.41047022  0.92238862     0.11100
S683        S  0.54532048  0.45653318  0.86953381    -0.27900
H684        H  0.55094407  0.45592882  0.93772428     0.08300
H685        H  0.57683659  0.52299170  0.03733559     0.26700
H686        H  0.47509522  0.39597167  0.97512281     0.21500
H687        H  0.53040503  0.46887815  0.84956696     0.26800
H688        H  0.53631179  0.37173873  0.96731875     0.15700
C689        C  0.69295248  0.27645056  0.06201209    -0.11600
C690        C  0.67411938  0.29104239  0.06186915     0.14900
C691        C  0.66056189  0.27778914  0.03928061     0.01800
C692        C  0.66599326  0.24983718  0.01782759    -0.16000
C693        C  0.68490803  0.23536841  0.01770245    -0.10800
C694        C  0.69858492  0.24922757  0.03996324     0.08500
C695        C  0.66979375  0.32307079  0.08236016     0.09600
S696        S  0.63623938  0.29582929  0.03627287    -0.25100
H697        H  0.65536169  0.23933005  0.00109188     0.19800
S698        S  0.72378137  0.23502731  0.04023107    -0.30800
H699        H  0.70356006  0.28729850  0.07863750     0.10200
C700        C  0.65713784  0.32197289  0.11020194     0.03400
C701        C  0.65069752  0.35434575  0.12474433    -0.13100
C702        C  0.65658093  0.38760116  0.11162774    -0.08800
C703        C  0.67082692  0.38820249  0.08573685     0.06800
C704        C  0.67719397  0.35603291  0.07143811    -0.13900
S705        S  0.64840750  0.27953050  0.12595199    -0.30800
H706        H  0.63989409  0.35372245  0.14465638     0.11100
S707        S  0.68078794  0.42908461  0.06860812    -0.27900
H708        H  0.68726541  0.35677028  0.05044560     0.08300
H709        H  0.72574041  0.23039729  0.00609631     0.26700
H710        H  0.63720243  0.29367972  0.15242626     0.21500
H711        H  0.67914106  0.44902433  0.09792945     0.26800
H712        H  0.64146128  0.33180593  0.04193559     0.15700
C713        C  0.53910697  0.30117442  0.23978771    -0.11600
C714        C  0.54133716  0.33460991  0.25521719     0.14900
C715        C  0.53179748  0.34135878  0.28571236     0.01800
C716        C  0.52062338  0.31422264  0.30042478    -0.16000
C717        C  0.51900870  0.28020971  0.28574561    -0.10800
C718        C  0.52823868  0.27371663  0.25488755     0.08500
C719        C  0.55379896  0.36185967  0.23906288     0.09600
S720        S  0.53336121  0.38364998  0.30739667    -0.25100
H721        H  0.51352804  0.31932657  0.32408169     0.19800
S722        S  0.52749622  0.23083160  0.23422319    -0.30800
H723        H  0.54637301  0.29615669  0.21626672     0.10200
C724        C  0.57429422  0.36118044  0.24147626     0.03400
C725        C  0.58554128  0.38874386  0.22721465    -0.13100
C726        C  0.57659351  0.41711616  0.21100178    -0.08800
C727        C  0.55605325  0.41701492  0.20777836     0.06800
C728        C  0.54488069  0.38936392  0.22194286    -0.13900
S729        S  0.58595497  0.32623031  0.26416963    -0.30800
H730        H  0.60126035  0.38896131  0.22976208     0.11100
S731        S  0.54396638  0.45101609  0.18452223    -0.27900
H732        H  0.52912587  0.38912312  0.21989292     0.08300
H733        H  0.52771081  0.20996039  0.26270268     0.26700
H734        H  0.60535344  0.33730784  0.25753180     0.21500
H735        H  0.52469210  0.44187087  0.19428449     0.26800
H736        H  0.55159306  0.39473811  0.29428508     0.15700
C737        C  0.41403443  0.73113696  0.98751702    -0.11600
C738        C  0.40978995  0.69477338  0.98243469     0.14900
C739        C  0.41656094  0.66903114  0.00443050     0.01800
C740        C  0.42593163  0.68054630  0.03265284    -0.16000
C741        C  0.42908270  0.71727406  0.03886930    -0.10800
C742        C  0.42392438  0.74259631  0.01507655     0.08500
C743        C  0.39620363  0.68570602  0.95631308     0.09600
S744        S  0.41265655  0.62156358  0.99868543    -0.25100
H745        H  0.43007848  0.66082997  0.05048748     0.19800
S746        S  0.42937019  0.78986675  0.01849752    -0.30800
H747        H  0.40910022  0.75086278  0.97027437     0.10200
C748        C  0.37585327  0.68727456  0.96252125     0.03400
C749        C  0.36320498  0.68491548  0.93633800    -0.13100
C750        C  0.37050979  0.68164498  0.90399070    -0.08800
C751        C  0.39094144  0.67923672  0.89793568     0.06800
C752        C  0.40355784  0.68095037  0.92422139    -0.13900
S753        S  0.36605775  0.69431507  0.00363900    -0.30800
H754        H  0.34754755  0.68655572  0.94094390     0.11100
S755        S  0.40187492  0.67747430  0.85726621    -0.27900
H756        H  0.41924193  0.68056465  0.91951399     0.08300
H757        H  0.44632115  0.78559288  0.03670612     0.26700
H758        H  0.34633885  0.69772758  0.99533372     0.21500
H759        H  0.38919772  0.70292750  0.84416028     0.26800
H760        H  0.41295625  0.62237786  0.96431224     0.15700
C761        C  0.38980058  0.89664054  0.20655500    -0.11600
C762        C  0.38175713  0.86854830  0.18833373     0.14900
C763        C  0.36124550  0.86639612  0.18552646     0.01800
C764        C  0.34929890  0.89295408  0.20002447    -0.16000
C765        C  0.35739913  0.92215723  0.21687995    -0.10800
C766        C  0.37789888  0.92309827  0.22119509     0.08500
C767        C  0.39514206  0.84225824  0.17210867     0.09600
S768        S  0.34952866  0.83111384  0.16284054    -0.25100
H769        H  0.33364077  0.89168516  0.19673893     0.19800
S770        S  0.38977306  0.95663757  0.24584056    -0.30800
H771        H  0.40550055  0.89791848  0.20938833     0.10200
C772        C  0.40557535  0.85091676  0.14294983     0.03400
C773        C  0.41743173  0.82487200  0.12739902    -0.13100
C774        C  0.41913568  0.79031090  0.14044177    -0.08800
C775        C  0.40876166  0.78180480  0.16981946     0.06800
C776        C  0.39704280  0.80794865  0.18547962    -0.13900
S777        S  0.40321450  0.89475328  0.12494110    -0.30800
H778        H  0.42527121  0.83121149  0.10474636     0.11100
S779        S  0.40916832  0.73779152  0.18775853    -0.27900
H780        H  0.38894556  0.80126138  0.20781854     0.08300
H781        H  0.37430755  0.95973909  0.26921620     0.26700
H782        H  0.41584515  0.88862273  0.09767750     0.21500
H783        H  0.41042386  0.71874249  0.15795191     0.26800
H784        H  0.36418085  0.82837296  0.13807216     0.15700
C785        C  0.48983835  0.65981313  0.16449879    -0.11600
C786        C  0.50794541  0.66314026  0.14773099     0.14900
C787        C  0.51014555  0.68846871  0.12237664     0.01800
C788        C  0.49403678  0.70889487  0.11355002    -0.16000
C789        C  0.47567375  0.70441150  0.12929131    -0.10800
C790        C  0.47361921  0.67969106  0.15519604     0.08500
C791        C  0.52286719  0.63530946  0.15271945     0.09600
S792        S  0.53256627  0.69365757  0.09841950    -0.25100
H793        H  0.49563048  0.72748886  0.09337938     0.19800
S794        S  0.45036761  0.66977224  0.17514342    -0.30800
H795        H  0.48799095  0.63973395  0.18339236     0.10200
C796        C  0.53808615  0.63976848  0.17483006     0.03400
C797        C  0.55230157  0.61281827  0.17709015    -0.13100
C798        C  0.55132191  0.58127267  0.15803828    -0.08800
C799        C  0.53523990  0.57613222  0.13752199     0.06800
C800        C  0.52146720  0.60339068  0.13467047    -0.13900
S801        S  0.53973707  0.68021539  0.19917172    -0.30800
H802        H  0.56447893  0.61672374  0.19307620     0.11100
S803        S  0.53083449  0.53490927  0.11554001    -0.27900
H804        H  0.50936914  0.59956847  0.11844755     0.08300
H805        H  0.43936722  0.67182073  0.14671402     0.26700
H806        H  0.55476648  0.66829994  0.21913737     0.21500
H807        H  0.53811648  0.51250256  0.13976785     0.26800
H808        H  0.54531363  0.68403530  0.12310826     0.15700
C809        C  0.27103815  0.57066398  0.86566459    -0.11600
C810        C  0.26981577  0.56736405  0.89983591     0.14900
C811        C  0.28280859  0.58707644  0.91927028     0.01800
C812        C  0.29594060  0.61116783  0.90435131    -0.16000
C813        C  0.29685875  0.61522917  0.87024041    -0.10800
C814        C  0.28431553  0.59458288  0.85068150     0.08500
C815        C  0.25418828  0.54469909  0.91467375     0.09600
S816        S  0.28313697  0.58290947  0.96317916    -0.25100
H817        H  0.30562844  0.62676877  0.91947179     0.19800
S818        S  0.28368403  0.59925082  0.80686692    -0.30800
H819        H  0.26105931  0.55554473  0.85069568     0.10200
C820        C  0.23745583  0.55995131  0.93025637     0.03400
C821        C  0.22304967  0.53740366  0.94428164    -0.13100
C822        C  0.22496735  0.49999255  0.94245296    -0.08800
C823        C  0.24187684  0.48488154  0.92717612     0.06800
C824        C  0.25620693  0.50735142  0.91325304    -0.13900
S825        S  0.23401411  0.60800731  0.93072135    -0.30800
H826        H  0.20987600  0.54879752  0.95539845     0.11100
S827        S  0.24601738  0.43711098  0.92470734    -0.27900
H828        H  0.26911708  0.49568168  0.90143623     0.08300
H829        H  0.28689555  0.63656355  0.80673837     0.29100
H830        H  0.21582631  0.60803118  0.94775912     0.21500
H831        H  0.23543908  0.42850389  0.95365387     0.26800
H832        H  0.27749377  0.54660790  0.96412944     0.15700
C833        C  0.16590004  0.35115954  0.89399612    -0.11600
C834        C  0.15997515  0.36585835  0.86439989     0.14900
C835        C  0.16289840  0.40282188  0.85863240     0.01800
C836        C  0.17141718  0.42422499  0.88269893    -0.16000
C837        C  0.17701768  0.40952817  0.91252053    -0.10800
C838        C  0.17453041  0.37241243  0.91788667     0.08500
C839        C  0.14870516  0.34248421  0.84234006     0.09600
S840        S  0.15575959  0.42424324  0.82146422    -0.25100
H841        H  0.17336339  0.45269516  0.87837679     0.19800
S842        S  0.18227066  0.35043097  0.95442689    -0.30800
H843        H  0.16349296  0.32287631  0.89872984     0.10200
C844        C  0.15686838  0.31096364  0.82835152     0.03400
C845        C  0.14445290  0.28489744  0.81512312    -0.13100
C846        C  0.12412113  0.28985131  0.81594105    -0.08800
C847        C  0.11630141  0.32306203  0.82655621     0.06800
C848        C  0.12863081  0.34897504  0.83979224    -0.13900
S849        S  0.18287018  0.30285304  0.82950809    -0.30800
H850        H  0.15036213  0.25921847  0.80719523     0.11100
S851        S  0.09042164  0.33223982  0.82676711    -0.27900
H852        H  0.12232082  0.37326650  0.85028831     0.08300
H853        H  0.19914635  0.37159909  0.95819557     0.26700
H854        H  0.18277100  0.26975788  0.81270422     0.21500
H855        H  0.08610220  0.30743466  0.80186901     0.26800
H856        H  0.15791848  0.39369423  0.80128061     0.15700
C857        C  0.13070657  0.07507093  0.90998537    -0.11600
C858        C  0.14977271  0.07954861  0.89701020     0.14900
C859        C  0.15357972  0.10559667  0.87273779     0.01800
C860        C  0.13836738  0.12741515  0.86277498    -0.16000
C861        C  0.11934168  0.12320420  0.87589982    -0.10800
C862        C  0.11538849  0.09673847  0.89969318     0.08500
C863        C  0.16550505  0.05770572  0.91036670     0.09600
S864        S  0.17746608  0.11273153  0.85382899    -0.25100
H865        H  0.14132275  0.14754075  0.84424044     0.19800
S866        S  0.09121557  0.09196096  0.91836689    -0.30800
H867        H  0.12799150  0.05506858  0.92866915     0.10200
C868        C  0.17867281  0.07228592  0.93275999     0.03400
C869        C  0.19373582  0.05078393  0.94422223    -0.13100
C870        C  0.19582645  0.01504163  0.93365698    -0.08800
C871        C  0.18200968  0.00015028  0.91225174     0.06800
C872        C  0.16712801  0.02173868  0.90064619    -0.13900
S873        S  0.17631623  0.11830219  0.94652038    -0.30800
H874        H  0.20427990  0.06213284  0.96063832     0.11100
S875        S  0.18214307  0.95366446  0.89956936    -0.27900
H876        H  0.15671338  0.01046472  0.88390335     0.08300
H877        H  0.09610454  0.06588564  0.94140565     0.26700
H878        H  0.19259667  0.11855915  0.96674165     0.21500
H879        H  0.18919885  0.94051380  0.92912362     0.26800
H880        H  0.18456498  0.07780363  0.85812004     0.15700
C881        C  0.00779648  0.93633934  0.83845419    -0.11600
C882        C  0.00322485  0.96668065  0.82004676     0.14900
C883        C  0.98374688  0.97188847  0.81057875     0.01800
C884        C  0.96930242  0.94715612  0.82020137    -0.16000
C885        C  0.97371443  0.91765952  0.83968853    -0.10800
C886        C  0.99326334  0.91181847  0.84846456     0.08500
C887        C  0.01859968  0.99397775  0.81341887     0.09600
S888        S  0.97616811  0.01006623  0.78724529    -0.25100
H889        H  0.95429671  0.95169152  0.81349521     0.19800
S890        S  0.00057962  0.87462362  0.87328461    -0.30800
H891        H  0.02272109  0.93231502  0.84581546     0.10200
C892        C  0.02475837  0.01684606  0.83859262     0.03400
C893        C  0.03742583  0.04529217  0.83109955    -0.13100
C894        C  0.04466942  0.05131180  0.79890459    -0.08800
C895        C  0.03953835  0.02654631  0.77399454     0.06800
C896        C  0.02629056  0.99854561  0.78151198    -0.13900
S897        S  0.01575135  0.01101732  0.88023617    -0.30800
H898        H  0.04130746  0.06343692  0.85066626     0.11100
S899        S  0.04985591  0.02940534  0.73286501    -0.27900
H900        H  0.02166644  0.98031735  0.76247609     0.08300
H901        H  0.98443384  0.85221666  0.86784949     0.26700
H902        H  0.02931002  0.03411759  0.89490415     0.21500
H903        H  0.04221071  0.99682684  0.72111727     0.26800
H904        H  0.98970990  0.03475539  0.79959115     0.15700
C905        C  0.69651271  0.04466919  0.49402931    -0.11600
C906        C  0.67789824  0.03175127  0.50331961     0.14900
C907        C  0.67358314  0.99491364  0.49954495     0.01800
C908        C  0.68841882  0.97139157  0.48901459    -0.16000
C909        C  0.70727512  0.98411792  0.48107674    -0.10800
C910        C  0.71128452  0.02124965  0.48309920     0.08500
C911        C  0.66407769  0.05683655  0.51979961     0.09600
S912        S  0.64964867  0.97632678  0.50859739    -0.25100
H913        H  0.68529166  0.94291637  0.48722797     0.19800
S914        S  0.73512408  0.04024764  0.47388006    -0.30800
H915        H  0.69981832  0.07298052  0.49684442     0.10200
C916        C  0.66074513  0.05596162  0.55399520     0.03400
C917        C  0.64868112  0.08192936  0.56908170    -0.13100
C918        C  0.63991681  0.10872690  0.55064251    -0.08800
C919        C  0.64247838  0.10832006  0.51618790     0.06800
C920        C  0.65486764  0.08288979  0.50122229    -0.13900
S921        S  0.67263466  0.02293328  0.57863044    -0.30800
H922        H  0.64662097  0.08217969  0.59545085     0.11100
S923        S  0.62975031  0.13852069  0.48998854    -0.27900
H924        H  0.65719316  0.08311133  0.47488237     0.08300
H925        H  0.74609505  0.01098835  0.48451195     0.26700
H926        H  0.66357819  0.03275233  0.60872394     0.21500
H927        H  0.61244438  0.13946292  0.50951547     0.26800
H928        H  0.63911854  0.00772160  0.50224955     0.15700
C929        C  0.76365635  0.88926514  0.57472555    -0.11600
C930        C  0.76903871  0.85343692  0.56937035     0.14900
C931        C  0.76565338  0.83724795  0.53864089     0.01800
C932        C  0.75722231  0.85728254  0.51390549    -0.16000
C933        C  0.75246284  0.89354494  0.51883953    -0.10800
C934        C  0.75579549  0.90963366  0.54971439     0.08500
C935        C  0.78028915  0.83473061  0.59448144     0.09600
S936        S  0.77239624  0.79148914  0.52923265    -0.25100
H937        H  0.75472612  0.84468044  0.49040854     0.19800
S938        S  0.75197411  0.95673503  0.55796345    -0.30800
H939        H  0.76661500  0.90198147  0.59800016     0.10200
C940        C  0.80046522  0.84146038  0.59721156     0.03400
C941        C  0.81193864  0.81697168  0.61389260    -0.13100
C942        C  0.80357069  0.78606843  0.62807616    -0.08800
C943        C  0.78298119  0.78326879  0.63051778     0.06800
C944        C  0.77151640  0.80699551  0.61281712    -0.13900
S945        S  0.81213512  0.87820448  0.57559085    -0.30800
H946        H  0.82773230  0.81945598  0.61222194     0.11100
S947        S  0.77085348  0.74735260  0.65233579    -0.27900
H948        H  0.75587199  0.80260221  0.61181758     0.08300
H949        H  0.75938903  0.96804178  0.52724855     0.26700
H950        H  0.82963075  0.87739792  0.59282918     0.21500
H951        H  0.78403262  0.74759330  0.67810670     0.26800
H952        H  0.79058167  0.79308399  0.54434111     0.15700
C953        C  0.90665782  0.76504432  0.81261160    -0.11600
C954        C  0.90363277  0.77385533  0.77995670     0.14900
C955        C  0.91156461  0.80597478  0.76716321     0.01800
C956        C  0.92136319  0.82959448  0.78786054    -0.16000
C957        C  0.92403580  0.82133201  0.82094973    -0.10800
C958        C  0.91719153  0.78783089  0.83294142     0.08500
C959        C  0.89126212  0.74988996  0.76043827     0.09600
S960        S  0.90934767  0.81861790  0.72491437    -0.25100
H961        H  0.92660238  0.85495834  0.77815413     0.19800
S962        S  0.92192637  0.77175711  0.87339993    -0.30800
H963        H  0.90083760  0.74004684  0.82226496     0.10200
C964        C  0.89828576  0.71689010  0.74801545     0.03400
C965        C  0.88598050  0.69515520  0.72944459    -0.13100
C966        C  0.86666211  0.70555719  0.72351013    -0.08800
C967        C  0.85943826  0.73799873  0.73753535     0.06800
C968        C  0.87193494  0.76005472  0.75518845    -0.13900
S969        S  0.92308972  0.70306279  0.75502815    -0.30800
H970        H  0.89155103  0.67029089  0.71899756     0.11100
S971        S  0.83427856  0.75208799  0.73542804    -0.27900
H972        H  0.86643392  0.78502487  0.76561622     0.08300
H973        H  0.94009949  0.78922801  0.87587141     0.26700
H974        H  0.92183165  0.66922779  0.73971637     0.21500
H975        H  0.82639789  0.71746927  0.73959307     0.26800
H976        H  0.90795287  0.78364614  0.71205193     0.15700
C977        C  0.75035994  0.57145144  0.48730784    -0.11600
C978        C  0.76064637  0.56093357  0.51474066     0.14900
C979        C  0.75654266  0.52756519  0.52929482     0.01800
C980        C  0.74304878  0.50462969  0.51518231    -0.16000
C981        C  0.73264413  0.51458437  0.48744497    -0.10800
C982        C  0.73615214  0.54900887  0.47384282     0.08500
C983        C  0.77612226  0.58442532  0.52725036     0.09600
S984        S  0.76818193  0.51248774  0.56576430    -0.25100
H985        H  0.74065728  0.47866848  0.52637913     0.19800
S986        S  0.72269465  0.56671348  0.44044014    -0.30800
H987        H  0.75333792  0.59744034  0.47649015     0.10200
C988        C  0.79598203  0.57532961  0.52264234     0.03400
C989        C  0.81021541  0.59602321  0.53789647    -0.13100
C990        C  0.80500624  0.62591095  0.55737406    -0.08800
C991        C  0.78501589  0.63488903  0.56194674     0.06800
C992        C  0.77082037  0.61437312  0.54640601    -0.13900
S993        S  0.80315921  0.53735289  0.49728807    -0.30800
H994        H  0.82548290  0.58894540  0.53454217     0.11100
S995        S  0.77657672  0.67033709  0.58911095    -0.27900
H996        H  0.75547825  0.62075318  0.55047149     0.08300
H997        H  0.70435159  0.55648065  0.45395649     0.26700
H998        H  0.82340115  0.53999922  0.50207868     0.21500
H999        H  0.79046569  0.66401501  0.61309183     0.26800
H1000       H  0.76987268  0.54660470  0.58034026     0.15700
C1001       C  0.04008845  0.32234262  0.64429138    -0.11600
C1002       C  0.02981046  0.29072714  0.65200383     0.14900
C1003       C  0.01098802  0.28537333  0.63938140     0.01800
C1004       C  0.00319768  0.31109390  0.61859427    -0.16000
C1005       C  0.01362006  0.34247371  0.61049617    -0.10800
C1006       C  0.03217676  0.34833022  0.62401512     0.08500
C1007       C  0.03916744  0.26429465  0.67354401     0.09600
S1008       S  0.99624663  0.24632861  0.64868224    -0.25100
H1009       H  0.98892753  0.30651272  0.60846980     0.19800
S1010       S  0.04641142  0.38852924  0.61674772    -0.30800
H1011       H  0.05440196  0.32684940  0.65428551     0.10200
C1012       C  0.04730724  0.23204614  0.66117159     0.03400
C1013       C  0.05673871  0.20871705  0.68244808    -0.13100
C1014       C  0.05858319  0.21730098  0.71579617    -0.08800
C1015       C  0.05016218  0.24947800  0.72813545     0.06800
C1016       C  0.04061757  0.27256827  0.70687650    -0.13900
S1017       S  0.04643969  0.22141584  0.61805581    -0.30800
H1018       H  0.06330110  0.18424557  0.67287202     0.11100
S1019       S  0.05088718  0.26096507  0.77105540    -0.27900
H1020       H  0.03428615  0.29738040  0.71612564     0.08300
H1021       H  0.03042183  0.41160051  0.61297430     0.26700
H1022       H  0.05782573  0.19008263  0.61887463     0.21500
H1023       H  0.03954262  0.29231691  0.76986377     0.26800
H1024       H  0.00360623  0.24035180  0.67988479     0.15700
C1025       C  0.90672189  0.50268266  0.64365063    -0.11600
C1026       C  0.91521620  0.50388445  0.61196312     0.14900
C1027       C  0.90742550  0.52742149  0.58891068     0.01800
C1028       C  0.89220151  0.55044430  0.59845388    -0.16000
C1029       C  0.88376394  0.55007839  0.63038589    -0.10800
C1030       C  0.89095759  0.52502090  0.65297342     0.08500
C1031       C  0.93228845  0.48070903  0.60361381     0.09600
S1032       S  0.91628173  0.52971981  0.54689263    -0.25100
H1033       H  0.88702194  0.56908452  0.58046772     0.19800
S1034       S  0.88049502  0.51934440  0.69355596    -0.30800
H1035       H  0.91240643  0.48410063  0.66124289     0.10200
C1036       C  0.95108427  0.49539930  0.59749157     0.03400
C1037       C  0.96656912  0.47269302  0.58781536    -0.13100
C1038       C  0.96371706  0.43553927  0.58422282    -0.08800
C1039       C  0.94486691  0.42093270  0.59025399     0.06800
C1040       C  0.92945596  0.44354849  0.60035683    -0.13900
S1041       S  0.95544839  0.54296283  0.60258181    -0.30800
H1042       H  0.98104946  0.48379302  0.58326872     0.11100
S1043       S  0.93937635  0.37405475  0.58405925    -0.27900
H1044       H  0.91497863  0.43228266  0.60465669     0.08300
H1045       H  0.86103641  0.52087727  0.68338727     0.26700
H1046       H  0.97539068  0.54260911  0.59304670     0.21500
H1047       H  0.95283081  0.36888722  0.55774599     0.26800
H1048       H  0.92199268  0.49360206  0.54407694     0.15700
C1049       C  0.29681743  0.07015607  0.43472914    -0.11600
C1050       C  0.28845711  0.10159787  0.42292833     0.14900
C1051       C  0.28956057  0.10852275  0.38891750     0.01800
C1052       C  0.29806691  0.08296205  0.36745553    -0.16000
C1053       C  0.30524389  0.05038244  0.37912948    -0.10800
C1054       C  0.30526008  0.04459768  0.41330493     0.08500
C1055       C  0.27738524  0.12490617  0.44650434     0.09600
S1056       S  0.28012419  0.14887970  0.37108379    -0.25100
H1057       H  0.29833215  0.08787477  0.34135537     0.19800
S1058       S  0.31666658  0.00529133  0.42998249    -0.30800
H1059       H  0.29635178  0.06541510  0.46084104     0.10200
C1060       C  0.25837284  0.11518265  0.45757800     0.03400
C1061       C  0.24772749  0.13838340  0.47853413    -0.13100
C1062       C  0.25560239  0.17133025  0.48849185    -0.08800
C1063       C  0.27498010  0.18038587  0.47856504     0.06800
C1064       C  0.28567226  0.15710275  0.45765244    -0.13900
S1065       S  0.24714614  0.07423122  0.44329406    -0.30800
H1066       H  0.23277859  0.13178652  0.48573899     0.11100
S1067       S  0.28677554  0.22119424  0.49162894    -0.27900
H1068       H  0.30040908  0.16432021  0.44963917     0.08300
H1069       H  0.31022634  0.01067213  0.46265436     0.26700
H1070       H  0.23002733  0.07653530  0.46317030     0.21500
H1071       H  0.27540894  0.22597316  0.52057168     0.26800
H1072       H  0.26645169  0.15793393  0.39606631     0.15700
C1073       C  0.18719977  0.16062707  0.60928168    -0.11600
C1074       C  0.18132219  0.18868358  0.63048597     0.14900
C1075       C  0.18899397  0.22347022  0.62494531     0.01800
C1076       C  0.20143074  0.22965268  0.59762361    -0.16000
C1077       C  0.20645544  0.20201254  0.57534013    -0.10800
C1078       C  0.19934896  0.16691692  0.58164929     0.08500
C1079       C  0.16604293  0.18125803  0.65635093     0.09600
S1080       S  0.18323512  0.26135414  0.65123264    -0.25100
H1081       H  0.20691133  0.25658632  0.59331406     0.19800
S1082       S  0.20381434  0.12955397  0.55419300    -0.30800
H1083       H  0.18143364  0.13385428  0.61341098     0.10200
C1084       C  0.14671137  0.17263627  0.64794604     0.03400
C1085       C  0.13250377  0.16607214  0.67269892    -0.13100
C1086       C  0.13695569  0.16840447  0.70600075    -0.08800
C1087       C  0.15645473  0.17680770  0.71436330     0.06800
C1088       C  0.17069361  0.18316365  0.68953297    -0.13900
S1089       S  0.13977963  0.17194914  0.60561658    -0.30800
H1090       H  0.11761397  0.16026034  0.66603559     0.11100
S1091       S  0.16430952  0.17895315  0.75604098    -0.27900
H1092       H  0.18554884  0.18955243  0.69610258     0.08300
H1093       H  0.20056526  0.14922358  0.52563693     0.26700
H1094       H  0.12037558  0.16029726  0.61111802     0.21500
H1095       H  0.15290415  0.14955011  0.76673282     0.26800
H1096       H  0.16415130  0.25052341  0.66036012     0.15700
C1097       C  0.15183306  0.43991077  0.06633786    -0.11600
C1098       C  0.16495070  0.44151652  0.09194007     0.14900
C1099       C  0.18479688  0.44980511  0.08489474     0.01800
C1100       C  0.19117895  0.45499480  0.05228226    -0.16000
C1101       C  0.17809723  0.45259508  0.02642669    -0.10800
C1102       C  0.15804147  0.44591927  0.03394655     0.08500
C1103       C  0.15734573  0.43321543  0.12538937     0.09600
S1104       S  0.20267345  0.45349307  0.11629407    -0.25100
H1105       H  0.20655613  0.46017948  0.04703176     0.19800
S1106       S  0.13940231  0.44578229  0.00367511    -0.30800
H1107       H  0.13653182  0.43405715  0.07171995     0.10200
C1108       C  0.14544032  0.45773523  0.14315207     0.03400
C1109       C  0.13702968  0.44768206  0.17344257    -0.13100
C1110       C  0.13996841  0.41328267  0.18629337    -0.08800
C1111       C  0.15172915  0.38855438  0.16807028     0.06800
C1112       C  0.16053089  0.39900851  0.13819697    -0.13900
S1113       S  0.14111496  0.50204722  0.12740034    -0.30800
H1114       H  0.12817639  0.46685048  0.18729390     0.11100
S1115       S  0.15488632  0.34258245  0.18017509    -0.27900
H1116       H  0.16925678  0.37981162  0.12410646     0.08300
H1117       H  0.14780524  0.47396125  0.98527321     0.26700
H1118       H  0.12606189  0.51138895  0.15009572     0.21500
H1119       H  0.13533077  0.33791232  0.19112363     0.26800
H1120       H  0.18960323  0.46461635  0.14154607     0.15700
C1121       C  0.04005238  0.45033004  0.47421583    -0.11600
C1122       C  0.04215893  0.42470642  0.44908711     0.14900
C1123       C  0.03232271  0.39139485  0.45198000     0.01800
C1124       C  0.02087193  0.38435758  0.48023580    -0.16000
C1125       C  0.01910882  0.40978779  0.50564891    -0.10800
C1126       C  0.02863546  0.44325287  0.50244394     0.08500
C1127       C  0.05568662  0.43319838  0.42134189     0.09600
S1128       S  0.03385397  0.35668924  0.42092919    -0.25100
H1129       H  0.01348298  0.35869268  0.48266192     0.19800
S1130       S  0.02729989  0.47623327  0.53506724    -0.30800
H1131       H  0.04779241  0.47564426  0.47194356     0.10200
C1132       C  0.04889575  0.44434001  0.39093089     0.03400
C1133       C  0.06247512  0.45340288  0.36593403    -0.13100
C1134       C  0.08276782  0.45252351  0.37096012    -0.08800
C1135       C  0.08940823  0.44264683  0.40209800     0.06800
C1136       C  0.07583526  0.43247057  0.42658847    -0.13900
S1137       S  0.02299360  0.44773339  0.38414795    -0.30800
H1138       H  0.05721904  0.46106263  0.34227562     0.11100
S1139       S  0.11473912  0.44466793  0.41307162    -0.27900
H1140       H  0.08098432  0.42490846  0.45037807     0.08300
H1141       H  0.03539803  0.50485476  0.51689268     0.26700
H1142       H  0.02469200  0.46537511  0.35387995     0.21500
H1143       H  0.11851594  0.47748251  0.39721994     0.26800
H1144       H  0.05198296  0.36675609  0.40670554     0.15700
C1145       C  0.18617883  0.31755647  0.37457290    -0.11600
C1146       C  0.18986966  0.33883683  0.40210726     0.14900
C1147       C  0.18390804  0.37495688  0.40273359     0.01800
C1148       C  0.17315897  0.38821199  0.37691881    -0.16000
C1149       C  0.16845593  0.36651426  0.34976770    -0.10800
C1150       C  0.17591641  0.33100419  0.34823845     0.08500
C1151       C  0.19871802  0.32148061  0.43046179     0.09600
S1152       S  0.18875794  0.40498859  0.43636845    -0.25100
H1153       H  0.16804254  0.41565194  0.37860693     0.19800
S1154       S  0.17231025  0.30068324  0.31443876    -0.30800
H1155       H  0.19101682  0.28987370  0.37391568     0.10200
C1156       C  0.18698374  0.30794619  0.45647214     0.03400
C1157       C  0.19552617  0.28661270  0.48024832    -0.13100
C1158       C  0.21567450  0.27883278  0.47877886    -0.08800
C1159       C  0.22761328  0.29559171  0.45434743     0.06800
C1160       C  0.21895456  0.31590861  0.43007187    -0.13900
S1161       S  0.16091650  0.31586865  0.45820671    -0.30800
H1162       H  0.18621737  0.27424756  0.49887896     0.11100
S1163       S  0.25392784  0.29254289  0.45285213    -0.27900
H1164       H  0.22802844  0.32723693  0.41052756     0.08300
H1165       H  0.18051791  0.32460257  0.29129808     0.26700
H1166       H  0.15736707  0.30167348  0.48962410     0.21500
H1167       H  0.25569418  0.29050668  0.48699360     0.26800
H1168       H  0.20593207  0.38807161  0.44615357     0.15700
C1169       C  0.16711834  0.58231484  0.37422982    -0.11600
C1170       C  0.18155363  0.56374092  0.39069633     0.14900
C1171       C  0.18345053  0.52636834  0.38638959     0.01800
C1172       C  0.17078567  0.50830980  0.36566750    -0.16000
C1173       C  0.15626437  0.52679834  0.34898816    -0.10800
C1174       C  0.15462863  0.56444628  0.35301927     0.08500
C1175       C  0.19604205  0.58523756  0.40813965     0.09600
S1176       S  0.20223232  0.50056315  0.40537110    -0.25100
H1177       H  0.17226937  0.47953661  0.36264708     0.19800
S1178       S  0.13802110  0.59062566  0.32923658    -0.30800
H1179       H  0.16631768  0.61121956  0.37691465     0.10200
C1180       C  0.21327423  0.59672134  0.39171102     0.03400
C1181       C  0.22541392  0.62152368  0.40694995    -0.13100
C1182       C  0.22061619  0.63522935  0.43824184    -0.08800
C1183       C  0.20374112  0.62238344  0.45530802     0.06800
C1184       C  0.19162192  0.59741893  0.44002904    -0.13900
S1185       S  0.21915389  0.58147817  0.35050331    -0.30800
H1186       H  0.23838904  0.63130451  0.39397564     0.11100
S1187       S  0.19608040  0.63864384  0.49530572    -0.27900
H1188       H  0.17823736  0.58861793  0.45244233     0.08300
H1189       H  0.14174447  0.62410799  0.34394897     0.26700
H1190       H  0.23772708  0.59772290  0.34774482     0.21500
H1191       H  0.20043256  0.67486382  0.48882038     0.26800
H1192       H  0.20506803  0.52378337  0.43205285     0.15700
C1193       C  0.93885737  0.66715226  0.44110181    -0.11600
C1194       C  0.92600443  0.63863828  0.44806830     0.14900
C1195       C  0.92353526  0.61114504  0.42453846     0.01800
C1196       C  0.93277980  0.61415626  0.39372002    -0.16000
C1197       C  0.94446340  0.64404523  0.38595312    -0.10800
C1198       C  0.94814662  0.67011118  0.41022331     0.08500
C1199       C  0.91255554  0.64208512  0.47683384     0.09600
S1200       S  0.90767961  0.57297056  0.43163639    -0.25100
H1201       H  0.92995846  0.59410375  0.37508508     0.19800
S1202       S  0.96404733  0.70787413  0.40141452    -0.30800
H1203       H  0.94060288  0.68822128  0.45918566     0.10200
C1204       C  0.91895904  0.64085568  0.50922861     0.03400
C1205       C  0.90539847  0.64657431  0.53524265    -0.13100
C1206       C  0.88556638  0.65306566  0.52930696    -0.08800
C1207       C  0.87917068  0.65215125  0.49668251     0.06800
C1208       C  0.89276751  0.64778179  0.47100378    -0.13900
S1209       S  0.94425182  0.63176289  0.51737132    -0.30800
H1210       H  0.91032862  0.64681549  0.56015895     0.11100
S1211       S  0.85382783  0.65455197  0.48588558    -0.27900
H1212       H  0.88782062  0.64827807  0.44606280     0.08300
H1213       H  0.96206103  0.72459015  0.43230033     0.26700
H1214       H  0.94176559  0.62846656  0.55150749     0.21500
H1215       H  0.84725195  0.63294559  0.51198657     0.26800
H1216       H  0.90869790  0.57336670  0.46594472     0.15700
C1217       C  0.99195020  0.56995327  0.23723032    -0.11600
C1218       C  0.01010828  0.56434846  0.25132578     0.14900
C1219       C  0.01396987  0.58037776  0.28192437     0.01800
C1220       C  0.99990235  0.60230435  0.29726657    -0.16000
C1221       C  0.98165923  0.60790741  0.28344255    -0.10800
C1222       C  0.97754774  0.59097050  0.25324364     0.08500
C1223       C  0.02482169  0.54089893  0.23482125     0.09600
S1224       S  0.03662523  0.57414332  0.30272959    -0.25100
H1225       H  0.00322387  0.61510253  0.32035453     0.19800
S1226       S  0.95400207  0.59359544  0.23470538    -0.30800
H1227       H  0.98882388  0.55714427  0.21407362     0.10200
C1228       C  0.02446185  0.50355426  0.24001066     0.03400
C1229       C  0.04193517  0.48406893  0.23631883    -0.13100
C1230       C  0.05952404  0.50156940  0.22750090    -0.08800
C1231       C  0.05879809  0.53706167  0.21587767     0.06800
C1232       C  0.04151945  0.55674421  0.22025620    -0.13900
S1233       S  0.00265144  0.48196924  0.25638548    -0.30800
H1234       H  0.04236919  0.45663631  0.24483816     0.11100
S1235       S  0.08012922  0.55935781  0.19873203    -0.27900
H1236       H  0.04160599  0.58521026  0.21502805     0.08300
H1237       H  0.94306870  0.59549511  0.26437306     0.26700
H1238       H  0.00953531  0.44657308  0.25274347     0.21500
H1239       H  0.09039508  0.52759219  0.19087983     0.26800
H1240       H  0.03949889  0.53815571  0.29342259     0.15700
C1241       C  0.65220310  0.66512130  0.99890514    -0.11600
C1242       C  0.64982991  0.63002190  0.98718300     0.14900
C1243       C  0.65641861  0.62162251  0.95492150     0.01800
C1244       C  0.66793878  0.64646090  0.93736717    -0.16000
C1245       C  0.67202715  0.68061504  0.95044563    -0.10800
C1246       C  0.66249930  0.69080448  0.98046642     0.08500
C1247       C  0.64146376  0.60256735  0.00983149     0.09600
S1248       S  0.65083868  0.57957385  0.93507859    -0.25100
H1249       H  0.67421324  0.63847568  0.91378354     0.19800
S1250       S  0.66249395  0.73598455  0.99665683    -0.30800
H1251       H  0.64625946  0.67245005  0.02291063     0.10200
C1252       C  0.65243343  0.57243689  0.01896177     0.03400
C1253       C  0.64378911  0.54665955  0.03962230    -0.13100
C1254       C  0.62480147  0.55119232  0.05320864    -0.08800
C1255       C  0.61462405  0.58325572  0.04650700     0.06800
C1256       C  0.62279550  0.60791581  0.02423219    -0.13900
S1257       S  0.67779498  0.56756708  0.00582381    -0.30800
H1258       H  0.65201110  0.52294907  0.04563983     0.11100
S1259       S  0.59117863  0.59427431  0.06501654    -0.27900
H1260       H  0.61461739  0.63175556  0.01834698     0.08300
H1261       H  0.66199741  0.75227525  0.96574196     0.26700
H1262       H  0.68153881  0.53596466  0.02312080     0.21500
H1263       H  0.59827648  0.59411061  0.09696401     0.26800
H1264       H  0.63321448  0.57342926  0.95282937     0.15700
C1265       C  0.73904921  0.71912319  0.81072291    -0.11600
C1266       C  0.74481903  0.68338104  0.80562078     0.14900
C1267       C  0.73759083  0.65667260  0.82721677     0.01800
C1268       C  0.72567462  0.66649329  0.85429783    -0.16000
C1269       C  0.72061080  0.70247593  0.86017350    -0.10800
C1270       C  0.72687136  0.72884366  0.83745882     0.08500
C1271       C  0.75992760  0.67536121  0.77979323     0.09600
S1272       S  0.74367830  0.60986110  0.82216441    -0.25100
H1273       H  0.72102456  0.64610632  0.87165524     0.19800
S1274       S  0.71997511  0.77538180  0.84150831    -0.30800
H1275       H  0.74446681  0.73973036  0.79418709     0.10200
C1276       C  0.75612483  0.67811042  0.74623855     0.03400
C1277       C  0.77106147  0.67032109  0.72294892    -0.13100
C1278       C  0.78986999  0.66024876  0.73244889    -0.08800
C1279       C  0.79377083  0.65866071  0.76625815     0.06800
C1280       C  0.77869075  0.66578854  0.78940182    -0.13900
S1281       S  0.73220750  0.69108651  0.73305499    -0.30800
H1282       H  0.76809199  0.67215030  0.69715782     0.11100
S1283       S  0.81809299  0.65006171  0.78054241    -0.27900
H1284       H  0.78154209  0.66451742  0.81527493     0.08300
H1285       H  0.70177478  0.76875391  0.85734261     0.26700
H1286       H  0.73641196  0.68881984  0.69920351     0.21500
H1287       H  0.81416892  0.65782485  0.81382012     0.26800
H1288       H  0.74584772  0.61061598  0.78786114     0.15700
C1289       C  0.77774599  0.89346455  0.28984402    -0.11600
C1290       C  0.78170916  0.92575866  0.30614464     0.14900
C1291       C  0.79525296  0.95015455  0.29193522     0.01800
C1292       C  0.80473550  0.94142514  0.26208666    -0.16000
C1293       C  0.80113455  0.90866790  0.24591583    -0.10800
C1294       C  0.78751453  0.88431141  0.26040040     0.08500
C1295       C  0.77303984  0.93103376  0.33945880     0.09600
S1296       S  0.80137158  0.99244488  0.31089536    -0.25100
H1297       H  0.81508671  0.96044898  0.25145775     0.19800
S1298       S  0.78317351  0.83984551  0.24449063    -0.30800
H1299       H  0.76767107  0.87435420  0.30109179     0.10200
C1300       C  0.75321878  0.94009085  0.34461926     0.03400
C1301       C  0.74527697  0.94163810  0.37667203    -0.13100
C1302       C  0.75675732  0.93438757  0.40387113    -0.08800
C1303       C  0.77691504  0.92682309  0.39843506     0.06800
C1304       C  0.78469585  0.92478083  0.36639815    -0.13900
S1305       S  0.73806798  0.94963758  0.31034987    -0.30800
H1306       H  0.72990688  0.94775952  0.38048003     0.11100
S1307       S  0.79375143  0.92080064  0.43099471    -0.27900
H1308       H  0.80002173  0.91823418  0.36237227     0.08300
H1309       H  0.80316007  0.83233041  0.23878807     0.26700
H1310       H  0.72134479  0.96024229  0.32881723     0.21500
H1311       H  0.78582999  0.94866282  0.45065068     0.26800
H1312       H  0.78360826  0.99691222  0.32864646     0.15700
C1313       C  0.89146892  0.92572423  0.03748882    -0.11600
C1314       C  0.88325404  0.92230619  0.00661692     0.14900
C1315       C  0.86288203  0.92708012  0.00365616     0.01800
C1316       C  0.85142253  0.93686233  0.03126254    -0.16000
C1317       C  0.85973052  0.94129390  0.06205269    -0.10800
C1318       C  0.87993417  0.93458567  0.06523021     0.08500
C1319       C  0.89636929  0.91374576  0.97812754     0.09600
S1320       S  0.85060920  0.92126913  0.96548979    -0.25100
H1321       H  0.83589085  0.94130659  0.02862200     0.19800
S1322       S  0.89172376  0.93529117  0.10409487    -0.30800
H1323       H  0.90700080  0.92118996  0.04000568     0.10200
C1324       C  0.90120507  0.93958492  0.95417718     0.03400
C1325       C  0.91316928  0.92983559  0.92705915    -0.13100
C1326       C  0.92066577  0.89492471  0.92370107    -0.08800
C1327       C  0.91668713  0.86973653  0.94874545     0.06800
C1328       C  0.90441194  0.87926089  0.97540389    -0.13900
S1329       S  0.89226106  0.98499613  0.95828368    -0.30800
H1330       H  0.91635011  0.94917484  0.90798111     0.11100
S1331       S  0.92717180  0.82540383  0.94854104    -0.27900
H1332       H  0.90111087  0.85966335  0.99424684     0.08300
H1333       H  0.87574492  0.92053942  0.12189055     0.26700
H1334       H  0.90178521  0.99854447  0.92998117     0.21500
H1335       H  0.94442114  0.83466263  0.93091755     0.26800
H1336       H  0.86388970  0.89658056  0.95125794     0.15700
C1337       C  0.72783441  0.81627335  0.00240270    -0.11600
C1338       C  0.74549180  0.80177112  0.01267071     0.14900
C1339       C  0.75277845  0.76986556  0.99817720     0.01800
C1340       C  0.74235435  0.75331070  0.97346657    -0.16000
C1341       C  0.72453690  0.76733346  0.96353621    -0.10800
C1342       C  0.71721826  0.79930709  0.97795074     0.08500
C1343       C  0.75661226  0.82128161  0.03731257     0.09600
S1344       S  0.77522308  0.74889935  0.01002895    -0.25100
H1345       H  0.74779549  0.72841394  0.96277921     0.19800
S1346       S  0.69470356  0.81992617  0.96608184    -0.30800
H1347       H  0.72241579  0.84105609  0.01332161     0.10200
C1348       C  0.77200571  0.84439543  0.02783848     0.03400
C1349       C  0.78346349  0.85990743  0.05188656    -0.13100
C1350       C  0.77975357  0.85283791  0.08523851    -0.08800
C1351       C  0.76373492  0.83079096  0.09465731     0.06800
C1352       C  0.75239408  0.81505767  0.07053296    -0.13900
S1353       S  0.77723801  0.85352580  0.98510123    -0.30800
H1354       H  0.79567208  0.87697182  0.04464489     0.11100
S1355       S  0.75675560  0.82236268  0.13678617    -0.27900
H1356       H  0.74036164  0.79747074  0.07761188     0.08300
H1357       H  0.69403958  0.80421715  0.93476509     0.26700
H1358       H  0.79328250  0.87655389  0.98974922     0.21500
H1359       H  0.76131577  0.85710228  0.14801692     0.26800
H1360       H  0.77449472  0.76022444  0.04287334     0.15700
C1361       C  0.90475814  0.80734677  0.21174430    -0.11600
C1362       C  0.89949225  0.79159961  0.24178384     0.14900
C1363       C  0.88098676  0.79900134  0.25657061     0.01800
C1364       C  0.86802954  0.82129754  0.24054935    -0.16000
C1365       C  0.87299341  0.83612419  0.20995818    -0.10800
C1366       C  0.89163973  0.82913220  0.19547168     0.08500
C1367       C  0.91282752  0.76500909  0.25542376     0.09600
S1368       S  0.87272218  0.78080139  0.29547790    -0.25100
H1369       H  0.85379374  0.82676406  0.25187653     0.19800
S1370       S  0.89901312  0.84486461  0.15534338    -0.30800
H1371       H  0.91886035  0.80126079  0.20021736     0.10200
C1372       C  0.91211846  0.72889381  0.24512381     0.03400
C1373       C  0.92421986  0.70372967  0.25956713    -0.13100
C1374       C  0.93671026  0.71383153  0.28462728    -0.08800
C1375       C  0.93757012  0.75023073  0.29465762     0.06800
C1376       C  0.92562027  0.77544997  0.27989048    -0.13900
S1377       S  0.89502347  0.71454241  0.21479755    -0.30800
H1378       H  0.92340554  0.67576771  0.25226973     0.11100
S1379       S  0.95337715  0.76610484  0.32625024    -0.27900
H1380       H  0.92605543  0.80325549  0.28782269     0.08300
H1381       H  0.88058800  0.83988251  0.14155565     0.26700
H1382       H  0.89723544  0.67744238  0.21955336     0.21500
H1383       H  0.96779643  0.73960377  0.32148438     0.26800
H1384       H  0.88584484  0.75210577  0.29734180     0.15700
C1385       C  0.72607695  0.08579083  0.05040160    -0.11600
C1386       C  0.74308365  0.07470478  0.03337786     0.14900
C1387       C  0.74588792  0.08374398  0.00007620     0.01800
C1388       C  0.73229121  0.10590995  0.98521422    -0.16000
C1389       C  0.71576898  0.11868581  0.00281237    -0.10800
C1390       C  0.71227631  0.10716901  0.03540268     0.08500
C1391       C  0.75789580  0.05496936  0.05154900     0.09600
S1392       S  0.76696347  0.06942457  0.97584522    -0.25100
H1393       H  0.73508293  0.11449631  0.96023520     0.19800
S1394       S  0.69052906  0.11881330  0.05923218    -0.30800
H1395       H  0.72368567  0.07812676  0.07573828     0.10200
C1396       C  0.77372854  0.07281290  0.06581677     0.03400
C1397       C  0.78726346  0.05302777  0.08340860    -0.13100
C1398       C  0.78543438  0.01556961  0.08668748    -0.08800
C1399       C  0.76965901  0.99790362  0.07145037     0.06800
C1400       C  0.75587149  0.01785186  0.05488776    -0.13900
S1401       S  0.77646851  0.12084947  0.06200783    -0.30800
H1402       H  0.79919588  0.06688265  0.09495667     0.11100
S1403       S  0.76701249  0.94991600  0.06978934    -0.27900
H1404       H  0.74378931  0.00419112  0.04349479     0.08300
H1405       H  0.67821143  0.12066013  0.03235093     0.26700
H1406       H  0.79452189  0.12359865  0.07745722     0.21500
H1407       H  0.78671945  0.94474998  0.05999258     0.26800
H1408       H  0.76992435  0.03707156  0.99235010     0.15700
C1409       C  0.98571543  0.17178240  0.00231903    -0.11600
C1410       C  0.00349474  0.15384925  0.99610988     0.14900
C1411       C  0.01265889  0.13633903  0.02205204     0.01800
C1412       C  0.00441542  0.13874530  0.05368872    -0.16000
C1413       C  0.98742667  0.15880106  0.06022658    -0.10800
C1414       C  0.97758684  0.17452700  0.03412098     0.08500
C1415       C  0.01352923  0.15834716  0.96380951     0.09600
S1416       S  0.03534824  0.11202662  0.01691517    -0.25100
H1417       H  0.01188665  0.12645037  0.07373402     0.19800
S1418       S  0.95498586  0.19905547  0.03970375    -0.30800
H1419       H  0.97861939  0.18515748  0.98246789     0.10200
C1420       C  0.01532209  0.13031944  0.94058733     0.03400
C1421       C  0.02732070  0.13509342  0.91230976    -0.13100
C1422       C  0.03729791  0.16768248  0.90683953    -0.08800
C1423       C  0.03395627  0.19663784  0.92894268     0.06800
C1424       C  0.02241617  0.19148051  0.95724865    -0.13900
S1425       S  0.00281387  0.08829402  0.94742740    -0.30800
H1426       H  0.02966482  0.11289139  0.89540024     0.11100
S1427       S  0.04399286  0.24098018  0.92251660    -0.27900
H1428       H  0.02064396  0.21336197  0.97471809     0.08300
H1429       H  0.95766491  0.21056375  0.07204890     0.26700
H1430       H  0.00324528  0.07791399  0.91429828     0.21500
H1431       H  0.04342794  0.23947719  0.88815434     0.26800
H1432       H  0.04376931  0.13388692  0.99241469     0.15700
C1433       C  0.01286356  0.28178904  0.17694938    -0.11600
C1434       C  0.02788719  0.26668361  0.19490322     0.14900
C1435       C  0.02889079  0.22909771  0.19836655     0.01800
C1436       C  0.01534652  0.20736729  0.18272772    -0.16000
C1437       C  0.00070595  0.22232510  0.16391257    -0.10800
C1438       C  0.99920547  0.25996092  0.16143561     0.08500
C1439       C  0.04302152  0.29046205  0.20810282     0.09600
S1440       S  0.04760438  0.20716309  0.22106479    -0.25100
H1441       H  0.01651515  0.17844545  0.18455078     0.19800
S1442       S  0.98058878  0.28155753  0.13830600    -0.30800
H1443       H  0.01205431  0.31067771  0.17444364     0.10200
C1444       C  0.06167342  0.29307544  0.19268869     0.03400
C1445       C  0.07605899  0.31436562  0.20697599    -0.13100
C1446       C  0.07204551  0.33329290  0.23619853    -0.08800
C1447       C  0.05332292  0.33035097  0.25169166     0.06800
C1448       C  0.03893086  0.30940833  0.23719479    -0.13900
S1449       S  0.06700627  0.26969953  0.15458096    -0.30800
H1450       H  0.09036397  0.31685646  0.19507375     0.11100
S1451       S  0.04719259  0.35108990  0.29070026    -0.27900
H1452       H  0.02463545  0.30690346  0.24918079     0.08300
H1453       H  0.96654948  0.25404080  0.14133830     0.26700
H1454       H  0.08598931  0.28360147  0.14934497     0.21500
H1455       H  0.06581827  0.34663244  0.30378641     0.26800
H1456       H  0.05055772  0.23516150  0.24361481     0.15700
C1457       C  0.91563907  0.01592971  0.20676577    -0.11600
C1458       C  0.91187908  0.05240668  0.21294300     0.14900
C1459       C  0.89309379  0.06286252  0.22462835     0.01800
C1460       C  0.87772583  0.03825748  0.22341132    -0.16000
C1461       C  0.88097345  0.00333393  0.21157694    -0.10800
C1462       C  0.90033612  0.99099297  0.20688118     0.08500
C1463       C  0.92541755  0.07900982  0.19799515     0.09600
S1464       S  0.88737731  0.10839004  0.23667552    -0.25100
H1465       H  0.86287710  0.04758010  0.22794440     0.19800
S1466       S  0.90595879  0.94537535  0.19522397    -0.30800
H1467       H  0.93009447  0.00746274  0.19835428     0.10200
C1468       C  0.94514969  0.08191478  0.20650771     0.03400
C1469       C  0.95749367  0.10558403  0.18910237    -0.13100
C1470       C  0.95051494  0.12587730  0.16309730    -0.08800
C1471       C  0.93073226  0.12314003  0.15477777     0.06800
C1472       C  0.91845303  0.09957360  0.17217353    -0.13900
S1473       S  0.95454941  0.05587002  0.23956748    -0.30800
H1474       H  0.97271398  0.10801090  0.19539725     0.11100
S1475       S  0.92091290  0.15020377  0.12266742    -0.27900
H1476       H  0.90334919  0.09662757  0.16534312     0.08300
H1477       H  0.89174873  0.93024511  0.21660232     0.26700
H1478       H  0.97435130  0.06513586  0.23426367     0.21500
H1479       H  0.90163687  0.13693250  0.12494967     0.26800
H1480       H  0.90672505  0.11835514  0.24335583     0.15700
loop_ 
_geom_bond_atom_site_label_1 
_geom_bond_atom_site_label_2 
_geom_bond_distance 
_geom_bond_site_symmetry_2 
_ccdc_geom_bond_type 
C1            C2   1.406       .  A
C1            C6   1.401       .  A
C1         C1470   1.474       .  S
C2            C3   1.400       .  A
C2            H7   1.084       .  S
C3            C4   1.401       .  A
C3         C1413   1.472       .  S
C4            C5   1.399       .  A
C4            H8   1.084   1_655  S
C5            C6   1.398       .  A
C5         C1437   1.469   1_655  S
C6            H9   1.084       .  S
O10         Ni16   1.916       .  S
O10          C31   1.272   1_545  A
O11         Ni34   1.876       .  S
O11          C20   1.261       .  A
O12         Ni16   1.920   1_565  S
O12         Ni34   1.899       .  S
O12         Ni28   1.924       .  S
O12          H35   0.960       .  S
C13        C1365   1.473       .  S
C13          O30   1.265       .  A
C13          O22   1.273       .  A
O14         Ni33   1.932       .  S
O14          C20   1.272       .  A
O15         Ni33   1.906       .  S
O15          C17   1.271       .  A
Ni16         O19   1.943       .  S
Ni16         O21   1.906   1_545  S
C17        C1293   1.487       .  S
C17          O27   1.278       .  A
O18         Ni34   1.901       .  S
O18          C24   1.264       .  A
O19          C24   1.273   1_545  A
C20        C1350   1.470       .  S
O21          C23   1.270       .  A
O22         Ni33   1.939       .  S
C23        C1317   1.480       .  S
C23          O29   1.275       .  A
C24        C1398   1.488   1_565  S
H25          O26   0.967       .  S
O26         Ni34   1.909       .  S
O26         Ni28   1.898       .  S
O26         Ni33   1.918       .  S
O27         Ni28   1.944       .  S
Ni28         O32   1.896       .  S
Ni28         O30   1.900       .  S
O29         Ni34   1.944       .  S
C31        C1461   1.464   1_565  S
C31          O32   1.263       .  A
C36        C1245   1.491       .  S
C36          N37   1.365       .  A
C36          N41   1.356       .  A
N37          C38   1.363       .  A
C38        C1269   1.477       .  S
C38          N39   1.357       .  A
N39          C40   1.353       .  A
C40        C1341   1.462       .  S
C40          N41   1.351       .  A
C42          C43   1.405       .  A
C42          C47   1.407       .  A
C42        C1221   1.483       .  S
C43          C44   1.403       .  A
C43          H48   1.084       .  S
C44          C45   1.398       .  A
C44        C1374   1.476       .  S
C45          C46   1.399       .  A
C45          H49   1.085       .  S
C46          C47   1.401       .  A
C46        C1197   1.475       .  S
C47          H50   1.084       .  S
O51         Ni57   1.910       .  S
O51          C72   1.269       .  A
O52         Ni75   1.888       .  S
O52          C61   1.265       .  A
O53         Ni57   1.919       .  S
O53         Ni75   1.910       .  S
O53         Ni69   1.932       .  S
O53          H76   0.957       .  S
C54        C1446   1.471       .  S
C54          O71   1.268       .  A
C54          O63   1.278       .  A
O55         Ni74   1.948       .  S
O55          C61   1.276       .  A
O56         Ni74   1.912       .  S
O56          C58   1.271       .  A
Ni57         O60   1.927       .  S
Ni57         O62   1.896       .  S
C58        C1110   1.485       .  S
C58          O68   1.276       .  A
O59         Ni75   1.897       .  S
O59          C65   1.262       .  A
O60          C65   1.266       .  A
C61        C1149   1.495       .  S
O62          C64   1.271       .  A
O63         Ni74   1.943       .  S
C64        C1134   1.483       .  S
C64          O70   1.281       .  A
C65        C1173   1.478       .  S
H66          O67   0.970       .  S
O67         Ni75   1.887       .  S
O67         Ni69   1.894       .  S
O67         Ni74   1.910       .  S
O68         Ni69   1.938       .  S
Ni69         O73   1.911       .  S
Ni69         O71   1.890       .  S
O70         Ni75   1.952       .  S
C72        C1230   1.474       .  S
C72          O73   1.267       .  A
C77        C1062   1.476       .  S
C77          N78   1.356       .  A
C77          N82   1.361       .  A
N78          C79   1.358       .  A
C79        C1158   1.488       .  S
C79          N80   1.360       .  A
N80          C81   1.361       .  A
C81        C1077   1.488       .  S
C81          N82   1.362       .  A
C83          C84   1.402       .  A
C83          C88   1.407       .  A
C83        C1038   1.482       .  S
C84          C85   1.401   1_655  A
C84          H89   1.084       .  S
C85          C86   1.402       .  A
C85        C1125   1.477       .  S
C86          C87   1.404       .  A
C86          H90   1.084       .  S
C87          C88   1.406   1_455  A
C87        C1005   1.483       .  S
C88          H91   1.084       .  S
O92         Ni98   1.961       .  S
O92         C113   1.277       .  A
O93        Ni116   1.921       .  S
O93         C102   1.270       .  A
O94         Ni98   1.917       .  S
O94        Ni116   1.905       .  S
O94        Ni110   1.892       .  S
O94         H117   0.966       .  S
C95        C1206   1.477       .  S
C95         O112   1.263       .  A
C95         O104   1.266       .  A
O96        Ni115   1.900       .  S
O96         C102   1.267       .  A
O97        Ni115   1.900       .  S
O97          C99   1.270       .  A
Ni98        O101   1.943       .  S
Ni98        O103   1.904       .  S
C99         C990   1.473       .  S
C99         O109   1.277       .  A
O100       Ni116   1.902       .  S
O100        C106   1.273       .  A
O101        C106   1.280       .  A
C102        C942   1.477       .  S
O103        C105   1.270       .  A
O104       Ni115   1.920       .  S
C105        C966   1.479       .  S
C105        O111   1.272       .  A
C106       C1278   1.486       .  S
H107        O108   0.966       .  S
O108       Ni116   1.933       .  S
O108       Ni110   1.908       .  S
O108       Ni115   1.917       .  S
O109       Ni110   1.940       .  S
Ni110       O114   1.883       .  S
Ni110       O112   1.903       .  S
O111       Ni116   1.923       .  S
C113       C1029   1.495       .  S
C113        O114   1.261       .  A
C118        C909   1.466       .  S
C118        N119   1.354       .  A
C118        N123   1.356       .  A
N119        C120   1.355       .  A
C120        C933   1.480       .  S
C120        N121   1.361       .  A
N121        C122   1.363       .  A
C122       C1302   1.489       .  S
C122        N123   1.360       .  A
C124        C125   1.403       .  A
C124        C129   1.402       .  A
C124        C885   1.475       .  S
C125        C126   1.403       .  A
C125        H130   1.084       .  S
C126        C127   1.402       .  A
C126       C1326   1.482       .  S
C127        C128   1.405       .  A
C127        H131   1.084       .  S
C128        C129   1.406       .  A
C128        C957   1.488       .  S
C129        H132   1.084       .  S
O133       Ni139   1.953       .  S
O133        C154   1.277       .  A
O134       Ni157   1.911       .  S
O134        C143   1.268       .  A
O135       Ni139   1.922       .  S
O135       Ni157   1.908       .  S
O135       Ni151   1.910       .  S
O135        H158   0.961       .  S
C136       C1422   1.482       .  S
C136        O153   1.269       .  A
C136        O145   1.269       .  A
O137       Ni156   1.907       .  S
O137        C143   1.267       .  A
O138       Ni156   1.899       .  S
O138        C140   1.268       .  A
Ni139       O142   1.940       .  S
Ni139       O144   1.915       .  S
C140        C861   1.466       .  S
C140        O150   1.274       .  A
O141       Ni157   1.911       .  S
O141        C147   1.271       .  A
O142        C147   1.278       .  A
C143        C846   1.466       .  S
O144        C146   1.273       .  A
O145       Ni156   1.926       .  S
C146       C1014   1.487       .  S
C146        O152   1.276       .  A
C147       C1086   1.492       .  S
H148        O149   0.974       .  S
O149       Ni157   1.930       .  S
O149       Ni151   1.906       .  S
O149       Ni156   1.918       .  S
O150       Ni151   1.940       .  S
Ni151       O155   1.884       .  S
Ni151       O153   1.920       .  S
O152       Ni157   1.938       .  S
C154        C894   1.496       .  S
C154        O155   1.263       .  A
C159        C822   1.471       .  S
C159        N160   1.355       .  A
C159        N164   1.363       .  A
N160        C161   1.352       .  A
C161        C837   1.472       .  S
C161        N162   1.356       .  A
N162        C163   1.359       .  A
C163       C1101   1.487   1_556  S
C163        N164   1.364       .  A
C165        C166   1.403       .  A
C165        C170   1.406       .  A
C165        C789   1.477       .  S
C166        C167   1.400       .  A
C166        H171   1.084       .  S
C167        C168   1.403       .  A
C167        C741   1.481       .  S
C168        C169   1.401       .  A
C168        H172   1.084       .  S
C169        C170   1.405       .  A
C169        C774   1.481       .  S
C170        H173   1.084       .  S
O174       Ni180   1.930       .  S
O174        C195   1.272       .  A
O175       Ni198   1.924       .  S
O175        C184   1.270       .  A
O176       Ni180   1.917       .  S
O176       Ni198   1.927       .  S
O176       Ni192   1.940       .  S
O176        H199   0.968       .  S
C177        C669   1.474       .  S
C177        O194   1.280       .  A
C177        O186   1.277       .  A
O178       Ni197   1.909       .  S
O178        C184   1.265       .  A
O179       Ni197   1.905       .  S
O179        C181   1.268       .  A
Ni180       O183   1.931       .  S
Ni180       O185   1.897       .  S
C181       C1254   1.488       .  S
C181        O191   1.269       .  A
O182       Ni198   1.907       .  S
O182        C188   1.268       .  A
O183        C188   1.272       .  A
C184        C702   1.480       .  S
O185        C187   1.271       .  A
O186       Ni197   1.915       .  S
C187        C726   1.474       .  S
C187        O193   1.279       .  A
C188        C645   1.476       .  S
H189        O190   0.965       .  S
O190       Ni198   1.903       .  S
O190       Ni192   1.886       .  S
O190       Ni197   1.897       .  S
O191       Ni192   1.926       .  S
Ni192       O196   1.898       .  S
Ni192       O194   1.929       .  S
O193       Ni198   1.944       .  S
C195        C798   1.480       .  S
C195        O196   1.266       .  A
C200       C1389   1.476   1_556  S
C200        N201   1.352   1_556  A
C200        N205   1.361       .  A
N201        C202   1.350   1_554  A
C202        C693   1.479   1_556  S
C202        N203   1.361       .  A
N203        C204   1.365       .  A
C204        C621   1.494       .  S
C204        N205   1.365       .  A
C206        C207   1.403       .  A
C206        C211   1.406       .  A
C206        C597   1.474       .  S
C207        C208   1.395       .  A
C207        H212   1.084       .  S
C208        C209   1.396       .  A
C208        C573   1.470       .  S
C209        C210   1.400       .  A
C209        H213   1.085       .  S
C210        C211   1.404       .  A
C210        C717   1.474       .  S
C211        H214   1.084       .  S
O215       Ni221   1.924       .  S
O215        C236   1.271       .  A
O216       Ni239   1.924       .  S
O216        C225   1.270       .  A
O217       Ni221   1.918       .  S
O217       Ni239   1.927   1_545  S
O217       Ni233   1.946       .  S
O217        H240   0.969       .  S
C218        C525   1.486       .  S
C218        O235   1.284       .  A
C218        O227   1.278       .  A
O219       Ni238   1.904       .  S
O219        C225   1.266       .  A
O220       Ni238   1.902       .  S
O220        C222   1.266   1_565  A
Ni221       O224   1.930       .  S
Ni221       O226   1.898   1_545  S
C222       C1053   1.484       .  S
C222        O232   1.272       .  A
O223       Ni239   1.917       .  S
O223        C229   1.270       .  A
O224        C229   1.273   1_545  A
C225        C549   1.478       .  S
O226        C228   1.271       .  A
O227       Ni238   1.915       .  S
C228        C765   1.483       .  S
C228        O234   1.281       .  A
C229        C510   1.498       .  S
H230        O231   0.966       .  S
O231       Ni239   1.910       .  S
O231       Ni233   1.874   1_565  S
O231       Ni238   1.890       .  S
O232       Ni233   1.937       .  S
Ni233       O237   1.894       .  S
Ni233       O235   1.936   1_545  S
O234       Ni239   1.952       .  S
C236        C606   1.473       .  S
C236        O237   1.265       .  A
C241       C1182   1.470       .  S
C241        N242   1.355       .  A
C241        N246   1.353       .  A
N242        C243   1.359       .  A
C243        C477   1.480       .  S
C243        N244   1.362       .  A
N244        C245   1.360       .  A
C245        C558   1.496       .  S
C245        N246   1.355       .  A
C247        C248   1.402       .  A
C247        C252   1.400       .  A
C247        C453   1.469       .  S
C248        C249   1.405       .  A
C248        H253   1.083       .  S
C249        C250   1.405       .  A
C249        C438   1.484       .  S
C250        C251   1.402       .  A
C250        H254   1.084       .  S
C251        C252   1.399       .  A
C251        C678   1.477       .  S
C252        H255   1.084       .  S
O256       Ni262   1.917       .  S
O256        C277   1.268       .  A
O257       Ni280   1.896       .  S
O257        C266   1.265       .  A
O258       Ni262   1.903       .  S
O258       Ni280   1.893       .  S
O258       Ni274   1.910       .  S
O258        H281   0.966       .  S
C259        C486   1.483       .  S
C259        O276   1.275       .  A
C259        O268   1.278       .  A
O260       Ni279   1.935       .  S
O260        C266   1.274       .  A
O261       Ni279   1.902       .  S
O261        C263   1.267       .  A
Ni262       O265   1.914       .  S
Ni262       O267   1.902       .  S
C263        C414   1.474       .  S
C263        O273   1.270       .  A
O264       Ni280   1.921       .  S
O264        C270   1.277       .  A
O265        C270   1.277       .  A
C266        C462   1.488       .  S
O267        C269   1.266       .  A
O268       Ni279   1.927       .  S
C269        C813   1.472       .  S
C269        O275   1.271       .  A
C270        C750   1.473       .  S
H271        O272   0.965       .  S
O272       Ni280   1.907       .  S
O272       Ni274   1.911       .  S
O272       Ni279   1.907       .  S
O273       Ni274   1.926       .  S
Ni274       O278   1.913       .  S
Ni274       O276   1.911       .  S
O275       Ni280   1.929       .  S
C277        C381   1.471       .  S
C277        O278   1.267       .  A
C282        C870   1.473   1_565  S
C282        N283   1.358       .  A
C282        N287   1.353       .  A
N283        C284   1.360       .  A
C284        C501   1.486   1_556  S
C284        N285   1.362       .  A
N285        C286   1.360       .  A
C286        C390   1.488       .  S
C286        N287   1.355       .  A
C288        C289   1.403       .  A
C288        C293   1.406       .  A
C288        C357   1.477       .  S
C289        C290   1.399       .  A
C289        H294   1.084       .  S
C290        C291   1.397       .  A
C290        C534   1.472       .  S
C291        C292   1.401       .  A
C291        H295   1.084       .  S
C292        C293   1.403       .  A
C292        C405   1.475       .  S
C293        H296   1.084       .  S
O297       Ni303   1.908       .  S
O297        C318   1.265       .  A
O298       Ni321   1.878       .  S
O298        C307   1.260       .  A
O299       Ni303   1.898       .  S
O299       Ni321   1.879       .  S
O299       Ni315   1.916       .  S
O299        H322   0.965       .  S
C300        C630   1.494       .  S
C300        O317   1.275       .  A
C300        O309   1.279       .  A
O301       Ni320   1.947       .  S
O301        C307   1.278       .  A
O302       Ni320   1.909       .  S
O302        C304   1.272       .  A
Ni303       O306   1.914       .  S
Ni303       O308   1.906       .  S
C304        C429   1.491       .  S
C304        O314   1.275       .  A
O305       Ni321   1.933       .  S
O305        C311   1.280       .  A
O306        C311   1.279       .  A
C307        C366   1.489       .  S
O308        C310   1.265       .  A
O309       Ni320   1.940       .  S
C310        C918   1.473       .  S
C310        O316   1.266       .  A
C311        C582   1.484       .  S
H312        O313   0.966       .  S
O313       Ni321   1.918       .  S
O313       Ni315   1.913       .  S
O313       Ni320   1.905       .  S
O314       Ni315   1.940       .  S
Ni315       O319   1.924       .  S
Ni315       O317   1.917       .  S
O316       Ni321   1.915       .  S
C318        C342   1.469       .  S
C318        O319   1.270       .  A
C323        C981   1.487       .  S
C323        N324   1.359       .  A
C323        N328   1.353       .  A
N324        C325   1.362       .  A
C325        C654   1.482       .  S
C325        N326   1.362       .  A
N326        C327   1.359       .  A
C327        C333   1.485       .  S
C327        N328   1.351       .  A
C329        C330   1.404       .  A
C329        C334   1.399       .  A
C329        H339   1.084       .  S
C330        C331   1.408       .  A
C330        C335   1.478       .  S
C331        C332   1.396       .  A
C331        S336   1.805       .  S
C332        C333   1.411       .  A
C332        H337   1.084       .  S
C333        C334   1.415       .  A
C334        S338   1.801       .  S
C335        C340   1.411       .  A
C335        C344   1.400       .  A
S336        H352   1.405       .  S
S338        H349   1.408       .  S
C340        C341   1.404       .  A
C340        S345   1.807       .  S
C341        C342   1.403       .  A
C341        H346   1.083       .  S
C342        C343   1.412       .  A
C343        C344   1.395       .  A
C343        S347   1.804       .  S
C344        H348   1.084       .  S
S345        H350   1.407       .  S
S347        H351   1.407       .  S
C353        C354   1.402   1_565  A
C353        C358   1.400       .  A
C353        H363   1.084       .  S
C354        C355   1.411       .  A
C354        C359   1.475       .  S
C355        C356   1.396   1_545  A
C355        S360   1.804       .  S
C356        C357   1.403       .  A
C356        H361   1.084   1_565  S
C357        C358   1.414       .  A
C358        S362   1.804       .  S
C359        C364   1.407       .  A
C359        C368   1.397       .  A
S360        H376   1.406       .  S
S362        H373   1.406       .  S
C364        C365   1.402       .  A
C364        S369   1.807       .  S
C365        C366   1.408       .  A
C365        H370   1.082       .  S
C366        C367   1.424       .  A
C367        C368   1.396       .  A
C367        S371   1.802       .  S
C368        H372   1.084       .  S
S369        H374   1.407       .  S
S371        H375   1.408       .  S
C377        C378   1.402       .  A
C377        C382   1.394       .  A
C377        H387   1.084       .  S
C378        C379   1.413       .  A
C378        C383   1.479       .  S
C379        C380   1.401       .  A
C379        S384   1.804       .  S
C380        C381   1.404       .  A
C380        H385   1.084       .  S
C381        C382   1.411       .  A
C382        S386   1.804       .  S
C383        C388   1.406       .  A
C383        C392   1.403       .  A
S384        H400   1.406       .  S
S386        H397   1.407       .  S
C388        C389   1.400       .  A
C388        S393   1.807       .  S
C389        C390   1.410       .  A
C389        H394   1.081       .  S
C390        C391   1.416       .  A
C391        C392   1.399       .  A
C391        S395   1.802       .  S
C392        H396   1.084       .  S
S393        H398   1.407       .  S
S395        H399   1.408       .  S
C401        C402   1.401       .  A
C401        C406   1.396       .  A
C401        H411   1.084       .  S
C402        C403   1.412       .  A
C402        C407   1.476       .  S
C403        C404   1.400       .  A
C403        S408   1.804       .  S
C404        C405   1.403       .  A
C404        H409   1.084       .  S
C405        C406   1.412       .  A
C406        S410   1.805       .  S
C407        C412   1.410       .  A
C407        C416   1.401       .  A
S408        H424   1.405       .  S
S410        H421   1.407       .  S
C412        C413   1.402       .  A
C412        S417   1.807       .  S
C413        C414   1.404       .  A
C413        H418   1.083       .  S
C414        C415   1.413       .  A
C415        C416   1.398       .  A
C415        S419   1.804       .  S
C416        H420   1.084       .  S
S417        H422   1.407       .  S
S419        H423   1.407       .  S
C425        C426   1.400       .  A
C425        C430   1.400       .  A
C425        H435   1.084       .  S
C426        C427   1.409       .  A
C426        C431   1.480       .  S
C427        C428   1.400       .  A
C427        S432   1.803       .  S
C428        C429   1.409       .  A
C428        H433   1.084       .  S
C429        C430   1.419       .  A
C430        S434   1.799       .  S
C431        C436   1.409       .  A
C431        C440   1.402       .  A
S432        H448   1.406       .  S
S434        H445   1.408       .  S
C436        C437   1.400       .  A
C436        S441   1.807       .  S
C437        C438   1.405       .  A
C437        H442   1.083       .  S
C438        C439   1.417       .  A
C439        C440   1.402       .  A
C439        S443   1.804       .  S
C440        H444   1.084       .  S
S441        H446   1.407       .  S
S443        H447   1.407       .  S
C449        C450   1.403       .  A
C449        C454   1.397       .  A
C449        H459   1.084       .  S
C450        C451   1.414       .  A
C450        C455   1.477       .  S
C451        C452   1.398       .  A
C451        S456   1.806       .  S
C452        C453   1.402       .  A
C452        H457   1.084       .  S
C453        C454   1.410       .  A
C454        S458   1.805       .  S
C455        C460   1.406       .  A
C455        C464   1.399       .  A
S456        H472   1.405       .  S
S458        H469   1.404       .  S
C460        C461   1.401       .  A
C460        S465   1.807       .  S
C461        C462   1.410       .  A
C461        H466   1.082       .  S
C462        C463   1.420       .  A
C463        C464   1.401       .  A
C463        S467   1.810       .  S
C464        H468   1.083       .  S
S465        H470   1.407       .  S
S467        H471   1.406       .  S
C473        C474   1.401       .  A
C473        C478   1.397       .  A
C473        H483   1.084       .  S
C474        C475   1.411       .  A
C474        C479   1.475       .  S
C475        C476   1.400       .  A
C475        S480   1.807       .  S
C476        C477   1.407       .  A
C476        H481   1.084       .  S
C477        C478   1.415       .  A
C478        S482   1.802       .  S
C479        C484   1.406       .  A
C479        C488   1.401       .  A
S480        H496   1.402       .  S
S482        H493   1.407       .  S
C484        C485   1.398       .  A
C484        S489   1.808       .  S
C485        C486   1.407       .  A
C485        H490   1.083       .  S
C486        C487   1.418       .  A
C487        C488   1.402       .  A
C487        S491   1.802       .  S
C488        H492   1.084       .  S
S489        H494   1.407       .  S
S491        H495   1.407       .  S
C497        C498   1.402   1_545  A
C497        C502   1.401       .  A
C497        H507   1.084       .  S
C498        C499   1.414       .  A
C498        C503   1.484       .  S
C499        C500   1.402       .  A
C499        S504   1.805       .  S
C500        C501   1.406       .  A
C500        H505   1.084       .  S
C501        C502   1.417   1_565  A
C502        S506   1.802       .  S
C503        C508   1.406       .  A
C503        C512   1.403       .  A
S504        H520   1.405       .  S
S506        H517   1.407   1_554  S
C508        C509   1.401       .  A
C508        S513   1.808       .  S
C509        C510   1.411       .  A
C509        H514   1.082       .  S
C510        C511   1.420       .  A
C511        C512   1.406       .  A
C511        S515   1.801       .  S
C512        H516   1.084       .  S
S513        H518   1.407   1_565  S
S515        H519   1.408   1_565  S
C521        C522   1.399       .  A
C521        C526   1.402       .  A
C521        H531   1.083       .  S
C522        C523   1.411       .  A
C522        C527   1.476       .  S
C523        C524   1.400       .  A
C523        S528   1.806   1_565  S
C524        C525   1.406       .  A
C524        H529   1.083   1_565  S
C525        C526   1.418       .  A
C526        S530   1.809       .  S
C527        C532   1.409       .  A
C527        C536   1.402       .  A
S528        H544   1.404   1_545  S
S530        H541   1.407       .  S
C532        C533   1.400       .  A
C532        S537   1.807       .  S
C533        C534   1.402       .  A
C533        H538   1.083       .  S
C534        C535   1.412       .  A
C535        C536   1.400       .  A
C535        S539   1.804       .  S
C536        H540   1.084       .  S
S537        H542   1.407       .  S
S539        H543   1.406       .  S
C545        C546   1.404       .  A
C545        C550   1.401       .  A
C545        H555   1.084       .  S
C546        C547   1.412       .  A
C546        C551   1.483       .  S
C547        C548   1.397       .  A
C547        S552   1.805       .  S
C548        C549   1.405       .  A
C548        H553   1.084       .  S
C549        C550   1.414       .  A
C550        S554   1.800       .  S
C551        C556   1.404       .  A
C551        C560   1.403       .  A
S552        H568   1.406       .  S
S554        H565   1.407       .  S
C556        C557   1.401       .  A
C556        S561   1.807       .  S
C557        C558   1.414       .  A
C557        H562   1.082       .  S
C558        C559   1.420       .  A
C559        C560   1.404       .  A
C559        S563   1.808       .  S
C560        H564   1.083       .  S
S561        H566   1.407       .  S
S563        H567   1.407       .  S
C569        C570   1.402       .  A
C569        C574   1.397       .  A
C569        H579   1.084       .  S
C570        C571   1.413       .  A
C570        C575   1.474       .  S
C571        C572   1.398       .  A
C571        S576   1.806       .  S
C572        C573   1.401       .  A
C572        H577   1.084       .  S
C573        C574   1.412       .  A
C574        S578   1.806       .  S
C575        C580   1.406       .  A
C575        C584   1.400       .  A
S576        H592   1.403       .  S
S578        H589   1.406       .  S
C580        C581   1.399       .  A
C580        S585   1.808       .  S
C581        C582   1.408       .  A
C581        H586   1.083       .  S
C582        C583   1.418       .  A
C583        C584   1.401       .  A
C583        S587   1.802       .  S
C584        H588   1.084       .  S
S585        H590   1.407       .  S
S587        H591   1.407       .  S
C593        C594   1.402       .  A
C593        C598   1.402       .  A
C593        H603   1.083       .  S
C594        C595   1.410       .  A
C594        C599   1.470       .  S
C595        C596   1.395       .  A
C595        S600   1.806       .  S
C596        C597   1.403       .  A
C596        H601   1.084       .  S
C597        C598   1.410       .  A
C598        S602   1.806       .  S
C599        C604   1.406       .  A
C599        C608   1.400       .  A
S600        H616   1.404       .  S
S602        H613   1.407       .  S
C604        C605   1.400       .  A
C604        S609   1.805       .  S
C605        C606   1.404       .  A
C605        H610   1.083       .  S
C606        C607   1.413       .  A
C607        C608   1.400       .  A
C607        S611   1.807       .  S
C608        H612   1.083       .  S
S609        H614   1.407       .  S
S611        H615   1.407       .  S
C617        C618   1.402       .  A
C617        C622   1.405       .  A
C617        H627   1.083       .  S
C618        C619   1.412       .  A
C618        C623   1.486       .  S
C619        C620   1.405       .  A
C619        S624   1.806       .  S
C620        C621   1.409       .  A
C620        H625   1.084       .  S
C621        C622   1.418       .  A
C622        S626   1.809       .  S
C623        C628   1.407       .  A
C623        C632   1.403       .  A
S624        H640   1.403       .  S
S626        H637   1.406       .  S
C628        C629   1.403       .  A
C628        S633   1.807       .  S
C629        C630   1.409       .  A
C629        H634   1.082       .  S
C630        C631   1.419       .  A
C631        C632   1.406       .  A
C631        S635   1.801       .  S
C632        H636   1.084       .  S
S633        H638   1.407       .  S
S635        H639   1.405       .  S
C641        C642   1.400       .  A
C641        C646   1.396       .  A
C641        H651   1.084       .  S
C642        C643   1.413       .  A
C642        C647   1.479       .  S
C643        C644   1.403       .  A
C643        S648   1.803       .  S
C644        C645   1.405       .  A
C644        H649   1.084       .  S
C645        C646   1.413       .  A
C646        S650   1.804       .  S
C647        C652   1.408       .  A
C647        C656   1.400       .  A
S648        H664   1.404       .  S
S650        H661   1.407       .  S
C652        C653   1.405       .  A
C652        S657   1.806       .  S
C653        C654   1.407       .  A
C653        H658   1.083       .  S
C654        C655   1.416       .  A
C655        C656   1.398       .  A
C655        S659   1.803       .  S
C656        H660   1.084       .  S
S657        H662   1.407       .  S
S659        H663   1.407       .  S
C665        C666   1.402   1_554  A
C665        C670   1.396       .  A
C665        H675   1.084   1_554  S
C666        C667   1.412   1_556  A
C666        C671   1.476       .  S
C667        C668   1.400       .  A
C667        S672   1.805       .  S
C668        C669   1.405       .  A
C668        H673   1.084       .  S
C669        C670   1.411       .  A
C670        S674   1.799       .  S
C671        C676   1.408       .  A
C671        C680   1.401       .  A
S672        H688   1.405   1_554  S
S674        H685   1.406       .  S
C676        C677   1.405       .  A
C676        S681   1.804       .  S
C677        C678   1.406       .  A
C677        H682   1.083       .  S
C678        C679   1.412       .  A
C679        C680   1.393       .  A
C679        S683   1.805       .  S
C680        H684   1.084       .  S
S681        H686   1.407       .  S
S683        H687   1.406       .  S
C689        C690   1.400       .  A
C689        C694   1.399       .  A
C689        H699   1.084       .  S
C690        C691   1.413       .  A
C690        C695   1.478       .  S
C691        C692   1.400       .  A
C691        S696   1.804       .  S
C692        C693   1.403       .  A
C692        H697   1.083       .  S
C693        C694   1.418       .  A
C694        S698   1.804       .  S
C695        C700   1.409       .  A
C695        C704   1.398       .  A
S696        H712   1.405       .  S
S698        H709   1.407       .  S
C700        C701   1.407       .  A
C700        S705   1.805       .  S
C701        C702   1.407       .  A
C701        H706   1.083       .  S
C702        C703   1.417       .  A
C703        C704   1.395       .  A
C703        S707   1.804       .  S
C704        H708   1.084       .  S
S705        H710   1.407       .  S
S707        H711   1.407       .  S
C713        C714   1.402       .  A
C713        C718   1.399       .  A
C713        H723   1.084       .  S
C714        C715   1.410       .  A
C714        C719   1.471       .  S
C715        C716   1.394       .  A
C715        S720   1.806       .  S
C716        C717   1.403       .  A
C716        H721   1.084       .  S
C717        C718   1.413       .  A
C718        S722   1.803       .  S
C719        C724   1.408       .  A
C719        C728   1.398       .  A
S720        H736   1.404       .  S
S722        H733   1.406       .  S
C724        C725   1.401       .  A
C724        S729   1.807       .  S
C725        C726   1.404       .  A
C725        H730   1.083       .  S
C726        C727   1.414       .  A
C727        C728   1.399       .  A
C727        S731   1.807       .  S
C728        H732   1.083       .  S
S729        H734   1.407       .  S
S731        H735   1.407       .  S
C737        C738   1.400       .  A
C737        C742   1.395   1_556  A
C737        H747   1.084       .  S
C738        C739   1.409   1_556  A
C738        C743   1.473       .  S
C739        C740   1.400       .  A
C739        S744   1.802   1_554  S
C740        C741   1.407       .  A
C740        H745   1.084       .  S
C741        C742   1.414       .  A
C742        S746   1.804       .  S
C743        C748   1.408       .  A
C743        C752   1.401       .  A
S744        H760   1.405       .  S
S746        H757   1.407       .  S
C748        C749   1.399       .  A
C748        S753   1.808   1_556  S
C749        C750   1.404       .  A
C749        H754   1.083       .  S
C750        C751   1.414       .  A
C751        C752   1.399       .  A
C751        S755   1.803       .  S
C752        H756   1.084       .  S
S753        H758   1.407   1_554  S
S755        H759   1.407       .  S
C761        C762   1.401       .  A
C761        C766   1.400       .  A
C761        H771   1.084       .  S
C762        C763   1.412       .  A
C762        C767   1.482       .  S
C763        C764   1.402       .  A
C763        S768   1.802       .  S
C764        C765   1.405       .  A
C764        H769   1.084       .  S
C765        C766   1.418       .  A
C766        S770   1.805       .  S
C767        C772   1.409       .  A
C767        C776   1.402       .  A
S768        H784   1.406       .  S
S770        H781   1.408       .  S
C772        C773   1.403       .  A
C772        S777   1.807       .  S
C773        C774   1.404       .  A
C773        H778   1.083       .  S
C774        C775   1.414       .  A
C775        C776   1.402       .  A
C775        S779   1.802       .  S
C776        H780   1.084       .  S
S777        H782   1.407       .  S
S779        H783   1.406       .  S
C785        C786   1.402       .  A
C785        C790   1.400       .  A
C785        H795   1.084       .  S
C786        C787   1.412       .  A
C786        C791   1.477       .  S
C787        C788   1.399       .  A
C787        S792   1.804       .  S
C788        C789   1.403       .  A
C788        H793   1.084       .  S
C789        C790   1.413       .  A
C790        S794   1.803       .  S
C791        C796   1.408       .  A
C791        C800   1.399       .  A
S792        H808   1.403       .  S
S794        H805   1.406       .  S
C796        C797   1.405       .  A
C796        S801   1.805       .  S
C797        C798   1.407       .  A
C797        H802   1.083       .  S
C798        C799   1.415       .  A
C799        C800   1.395       .  A
C799        S803   1.803       .  S
C800        H804   1.084       .  S
S801        H806   1.407       .  S
S803        H807   1.404       .  S
C809        C810   1.403       .  A
C809        C814   1.401       .  A
C809        H819   1.084       .  S
C810        C811   1.410       .  A
C810        C815   1.478       .  S
C811        C812   1.398       .  A
C811        S816   1.804       .  S
C812        C813   1.403       .  A
C812        H817   1.084       .  S
C813        C814   1.412       .  A
C814        S818   1.803       .  S
C815        C820   1.411       .  A
C815        C824   1.400       .  A
S816        H832   1.406       .  S
S818        H829   1.407       .  S
C820        C821   1.404       .  A
C820        S825   1.807       .  S
C821        C822   1.402       .  A
C821        H826   1.083       .  S
C822        C823   1.414       .  A
C823        C824   1.397       .  A
C823        S827   1.805       .  S
C824        H828   1.084       .  S
S825        H830   1.407       .  S
S827        H831   1.407       .  S
C833        C834   1.404       .  A
C833        C838   1.396       .  A
C833        H843   1.084       .  S
C834        C835   1.412       .  A
C834        C839   1.480       .  S
C835        C836   1.401       .  A
C835        S840   1.803       .  S
C836        C837   1.405       .  A
C836        H841   1.084       .  S
C837        C838   1.411       .  A
C838        S842   1.804       .  S
C839        C844   1.411       .  A
C839        C848   1.402       .  A
S840        H856   1.406       .  S
S842        H853   1.407       .  S
C844        C845   1.404       .  A
C844        S849   1.806       .  S
C845        C846   1.402       .  A
C845        H850   1.083       .  S
C846        C847   1.410       .  A
C847        C848   1.396       .  A
C847        S851   1.803       .  S
C848        H852   1.084       .  S
S849        H854   1.407       .  S
S851        H855   1.407       .  S
C857        C858   1.402       .  A
C857        C862   1.401       .  A
C857        H867   1.083       .  S
C858        C859   1.411       .  A
C858        C863   1.472       .  S
C859        C860   1.395       .  A
C859        S864   1.805       .  S
C860        C861   1.401       .  A
C860        H865   1.084       .  S
C861        C862   1.410       .  A
C862        S866   1.808       .  S
C863        C868   1.408       .  A
C863        C872   1.399       .  A
S864        H880   1.405       .  S
S866        H877   1.407       .  S
C868        C869   1.401       .  A
C868        S873   1.806       .  S
C869        C870   1.403       .  A
C869        H874   1.083       .  S
C870        C871   1.416       .  A
C871        C872   1.396       .  A
C871        S875   1.804   1_545  S
C872        H876   1.084       .  S
S873        H878   1.407       .  S
S875        H879   1.407       .  S
C881        C882   1.404       .  A
C881        C886   1.402   1_455  A
C881        H891   1.084       .  S
C882        C883   1.413   1_455  A
C882        C887   1.481       .  S
C883        C884   1.398       .  A
C883        S888   1.805   1_565  S
C884        C885   1.402       .  A
C884        H889   1.084       .  S
C885        C886   1.412       .  A
C886        S890   1.805   1_655  S
C887        C892   1.405   1_565  A
C887        C896   1.403       .  A
S888        H904   1.405       .  S
S890        H901   1.404   1_455  S
C892        C893   1.396       .  A
C892        S897   1.807       .  S
C893        C894   1.411       .  A
C893        H898   1.082       .  S
C894        C895   1.420       .  A
C895        C896   1.409   1_545  A
C895        S899   1.807       .  S
C896        H900   1.083       .  S
S897        H902   1.407       .  S
S899        H903   1.407   1_545  S
C905        C906   1.402       .  A
C905        C910   1.398       .  A
C905        H915   1.084       .  S
C906        C907   1.411   1_545  A
C906        C911   1.476       .  S
C907        C908   1.398       .  A
C907        S912   1.804       .  S
C908        C909   1.402       .  A
C908        H913   1.084       .  S
C909        C910   1.412   1_565  A
C910        S914   1.805       .  S
C911        C916   1.410       .  A
C911        C920   1.400       .  A
S912        H928   1.406   1_565  S
S914        H925   1.405       .  S
C916        C917   1.401       .  A
C916        S921   1.807       .  S
C917        C918   1.403       .  A
C917        H922   1.083       .  S
C918        C919   1.414       .  A
C919        C920   1.398       .  A
C919        S923   1.804       .  S
C920        H924   1.084       .  S
S921        H926   1.407       .  S
S923        H927   1.407       .  S
C929        C930   1.400       .  A
C929        C934   1.400       .  A
C929        H939   1.084       .  S
C930        C931   1.414       .  A
C930        C935   1.482       .  S
C931        C932   1.401       .  A
C931        S936   1.803       .  S
C932        C933   1.402       .  A
C932        H937   1.084       .  S
C933        C934   1.417       .  A
C934        S938   1.803       .  S
C935        C940   1.409       .  A
C935        C944   1.404       .  A
S936        H952   1.406       .  S
S938        H949   1.407       .  S
C940        C941   1.400       .  A
C940        S945   1.806       .  S
C941        C942   1.405       .  A
C941        H946   1.084       .  S
C942        C943   1.412       .  A
C943        C944   1.403       .  A
C943        S947   1.800       .  S
C944        H948   1.083       .  S
S945        H950   1.407       .  S
S947        H951   1.407       .  S
C953        C954   1.399       .  A
C953        C958   1.397       .  A
C953        H963   1.084       .  S
C954        C955   1.410       .  A
C954        C959   1.475       .  S
C955        C956   1.399       .  A
C955        S960   1.805       .  S
C956        C957   1.407       .  A
C956        H961   1.083       .  S
C957        C958   1.417       .  A
C958        S962   1.803       .  S
C959        C964   1.407       .  A
C959        C968   1.399       .  A
S960        H976   1.405       .  S
S962        H973   1.407       .  S
C964        C965   1.402       .  A
C964        S969   1.806       .  S
C965        C966   1.406       .  A
C965        H970   1.083       .  S
C966        C967   1.418       .  A
C967        C968   1.396       .  A
C967        S971   1.805       .  S
C968        H972   1.084       .  S
S969        H974   1.407       .  S
S971        H975   1.406       .  S
C977        C978   1.401       .  A
C977        C982   1.402       .  A
C977        H987   1.084       .  S
C978        C979   1.406       .  A
C978        C983   1.472       .  S
C979        C980   1.391       .  A
C979        S984   1.806       .  S
C980        C981   1.410       .  A
C980        H985   1.083       .  S
C981        C982   1.419       .  A
C982        S986   1.801       .  S
C983        C988   1.407       .  A
C983        C992   1.401       .  A
S984       H1000   1.406       .  S
S986        H997   1.408       .  S
C988        C989   1.398       .  A
C988        S993   1.808       .  S
C989        C990   1.404       .  A
C989        H994   1.082       .  S
C990        C991   1.415       .  A
C991        C992   1.398       .  A
C991        S995   1.804       .  S
C992        H996   1.084       .  S
S993        H998   1.407       .  S
S995        H999   1.407       .  S
C1001      C1002   1.403       .  A
C1001      C1006   1.400       .  A
C1001      H1011   1.084       .  S
C1002      C1003   1.414       .  A
C1002      C1007   1.486       .  S
C1003      C1004   1.403       .  A
C1003      S1008   1.803   1_455  S
C1004      C1005   1.404       .  A
C1004      H1009   1.084   1_455  S
C1005      C1006   1.415       .  A
C1006      S1010   1.805       .  S
C1007      C1012   1.410       .  A
C1007      C1016   1.401       .  A
S1008      H1024   1.405   1_655  S
S1010      H1021   1.406       .  S
C1012      C1013   1.407       .  A
C1012      S1017   1.806       .  S
C1013      C1014   1.407       .  A
C1013      H1018   1.083       .  S
C1014      C1015   1.415       .  A
C1015      C1016   1.404       .  A
C1015      S1019   1.805       .  S
C1016      H1020   1.083       .  S
S1017      H1022   1.407       .  S
S1019      H1023   1.406       .  S
C1025      C1026   1.404       .  A
C1025      C1030   1.406       .  A
C1025      H1035   1.084       .  S
C1026      C1027   1.410       .  A
C1026      C1031   1.484       .  S
C1027      C1028   1.396       .  A
C1027      S1032   1.806       .  S
C1028      C1029   1.411       .  A
C1028      H1033   1.084       .  S
C1029      C1030   1.418       .  A
C1030      S1034   1.800       .  S
C1031      C1036   1.411       .  A
C1031      C1040   1.403       .  A
S1032      H1048   1.405       .  S
S1034      H1045   1.407       .  S
C1036      C1037   1.403       .  A
C1036      S1041   1.808       .  S
C1037      C1038   1.405       .  A
C1037      H1042   1.083       .  S
C1038      C1039   1.413       .  A
C1039      C1040   1.402       .  A
C1039      S1043   1.803       .  S
C1040      H1044   1.084       .  S
S1041      H1046   1.407       .  S
S1043      H1047   1.406       .  S
C1049      C1050   1.401       .  A
C1049      C1054   1.402       .  A
C1049      H1059   1.083       .  S
C1050      C1051   1.416       .  A
C1050      C1055   1.484       .  S
C1051      C1052   1.405       .  A
C1051      S1056   1.806       .  S
C1052      C1053   1.404       .  A
C1052      H1057   1.084       .  S
C1053      C1054   1.415       .  A
C1054      S1058   1.810       .  S
C1055      C1060   1.410       .  A
C1055      C1064   1.404       .  A
S1056      H1072   1.403       .  S
S1058      H1069   1.407       .  S
C1060      C1061   1.402       .  A
C1060      S1065   1.807       .  S
C1061      C1062   1.401       .  A
C1061      H1066   1.083       .  S
C1062      C1063   1.414       .  A
C1063      C1064   1.404       .  A
C1063      S1067   1.804       .  S
C1064      H1068   1.084       .  S
S1065      H1070   1.407       .  S
S1067      H1071   1.406       .  S
C1073      C1074   1.405       .  A
C1073      C1078   1.402       .  A
C1073      H1083   1.084       .  S
C1074      C1075   1.414       .  A
C1074      C1079   1.490       .  S
C1075      C1076   1.403       .  A
C1075      S1080   1.805       .  S
C1076      C1077   1.406       .  A
C1076      H1081   1.084       .  S
C1077      C1078   1.416       .  A
C1078      S1082   1.802       .  S
C1079      C1084   1.411       .  A
C1079      C1088   1.404       .  A
S1080      H1096   1.405       .  S
S1082      H1093   1.407       .  S
C1084      C1085   1.403       .  A
C1084      S1089   1.808       .  S
C1085      C1086   1.406       .  A
C1085      H1090   1.083       .  S
C1086      C1087   1.420       .  A
C1087      C1088   1.406       .  A
C1087      S1091   1.803       .  S
C1088      H1092   1.084       .  S
S1089      H1094   1.407       .  S
S1091      H1095   1.407       .  S
C1097      C1098   1.400       .  A
C1097      C1102   1.398       .  A
C1097      H1107   1.084       .  S
C1098      C1099   1.412       .  A
C1098      C1103   1.483       .  S
C1099      C1100   1.405       .  A
C1099      S1104   1.803       .  S
C1100      C1101   1.408       .  A
C1100      H1105   1.084       .  S
C1101      C1102   1.418       .  A
C1102      S1106   1.803       .  S
C1103      C1108   1.408       .  A
C1103      C1112   1.402       .  A
S1104      H1120   1.405       .  S
S1106      H1117   1.407   1_554  S
C1108      C1109   1.402       .  A
C1108      S1113   1.806       .  S
C1109      C1110   1.407       .  A
C1109      H1114   1.083       .  S
C1110      C1111   1.417       .  A
C1111      C1112   1.402       .  A
C1111      S1115   1.802       .  S
C1112      H1116   1.084       .  S
S1113      H1118   1.407       .  S
S1115      H1119   1.408       .  S
C1121      C1122   1.401       .  A
C1121      C1126   1.400       .  A
C1121      H1131   1.083       .  S
C1122      C1123   1.414       .  A
C1122      C1127   1.477       .  S
C1123      C1124   1.401       .  A
C1123      S1128   1.806       .  S
C1124      C1125   1.403       .  A
C1124      H1129   1.084       .  S
C1125      C1126   1.410       .  A
C1126      S1130   1.807       .  S
C1127      C1132   1.407       .  A
C1127      C1136   1.401       .  A
S1128      H1144   1.404       .  S
S1130      H1141   1.407       .  S
C1132      C1133   1.402       .  A
C1132      S1137   1.806       .  S
C1133      C1134   1.409       .  A
C1133      H1138   1.083       .  S
C1134      C1135   1.416       .  A
C1135      C1136   1.398       .  A
C1135      S1139   1.803       .  S
C1136      H1140   1.084       .  S
S1137      H1142   1.407       .  S
S1139      H1143   1.408       .  S
C1145      C1146   1.400       .  A
C1145      C1150   1.400       .  A
C1145      H1155   1.084       .  S
C1146      C1147   1.407       .  A
C1146      C1151   1.478       .  S
C1147      C1148   1.399       .  A
C1147      S1152   1.804       .  S
C1148      C1149   1.412       .  A
C1148      H1153   1.083       .  S
C1149      C1150   1.420       .  A
C1150      S1154   1.800       .  S
C1151      C1156   1.408       .  A
C1151      C1160   1.399       .  A
S1152      H1168   1.405       .  S
S1154      H1165   1.408       .  S
C1156      C1157   1.403       .  A
C1156      S1161   1.807       .  S
C1157      C1158   1.408       .  A
C1157      H1162   1.082       .  S
C1158      C1159   1.418       .  A
C1159      C1160   1.400       .  A
C1159      S1163   1.802       .  S
C1160      H1164   1.084       .  S
S1161      H1166   1.407       .  S
S1163      H1167   1.407       .  S
C1169      C1170   1.400       .  A
C1169      C1174   1.399       .  A
C1169      H1179   1.083       .  S
C1170      C1171   1.408       .  A
C1170      C1175   1.470       .  S
C1171      C1172   1.397       .  A
C1171      S1176   1.805       .  S
C1172      C1173   1.407       .  A
C1172      H1177   1.083       .  S
C1173      C1174   1.416       .  A
C1174      S1178   1.810       .  S
C1175      C1180   1.405       .  A
C1175      C1184   1.402       .  A
S1176      H1192   1.405       .  S
S1178      H1189   1.407       .  S
C1180      C1181   1.396       .  A
C1180      S1185   1.808       .  S
C1181      C1182   1.404       .  A
C1181      H1186   1.083       .  S
C1182      C1183   1.414       .  A
C1183      C1184   1.400       .  A
C1183      S1187   1.803       .  S
C1184      H1188   1.084       .  S
S1185      H1190   1.407       .  S
S1187      H1191   1.407       .  S
C1193      C1194   1.402       .  A
C1193      C1198   1.401       .  A
C1193      H1203   1.083       .  S
C1194      C1195   1.413       .  A
C1194      C1199   1.476       .  S
C1195      C1196   1.397       .  A
C1195      S1200   1.805       .  S
C1196      C1197   1.401       .  A
C1196      H1201   1.084       .  S
C1197      C1198   1.411       .  A
C1198      S1202   1.807       .  S
C1199      C1204   1.409       .  A
C1199      C1208   1.398       .  A
S1200      H1216   1.406       .  S
S1202      H1213   1.407       .  S
C1204      C1205   1.405       .  A
C1204      S1209   1.805       .  S
C1205      C1206   1.407       .  A
C1205      H1210   1.083       .  S
C1206      C1207   1.416       .  A
C1207      C1208   1.390       .  A
C1207      S1211   1.804       .  S
C1208      H1212   1.084       .  S
S1209      H1214   1.407       .  S
S1211      H1215   1.404       .  S
C1217      C1218   1.402   1_655  A
C1217      C1222   1.403       .  A
C1217      H1227   1.084       .  S
C1218      C1219   1.414       .  A
C1218      C1223   1.478       .  S
C1219      C1220   1.395   1_455  A
C1219      S1224   1.806       .  S
C1220      C1221   1.402       .  A
C1220      H1225   1.084   1_655  S
C1221      C1222   1.417       .  A
C1222      S1226   1.803       .  S
C1223      C1228   1.409       .  A
C1223      C1232   1.402       .  A
S1224      H1240   1.404       .  S
S1226      H1237   1.407       .  S
C1228      C1229   1.404       .  A
C1228      S1233   1.805       .  S
C1229      C1230   1.405       .  A
C1229      H1234   1.083       .  S
C1230      C1231   1.410       .  A
C1231      C1232   1.399       .  A
C1231      S1235   1.802       .  S
C1232      H1236   1.084       .  S
S1233      H1238   1.407       .  S
S1235      H1239   1.408       .  S
C1241      C1242   1.400       .  A
C1241      C1246   1.398       .  A
C1241      H1251   1.084   1_556  S
C1242      C1243   1.414       .  A
C1242      C1247   1.487   1_556  S
C1243      C1244   1.401       .  A
C1243      S1248   1.804       .  S
C1244      C1245   1.407       .  A
C1244      H1249   1.083       .  S
C1245      C1246   1.421       .  A
C1246      S1250   1.804       .  S
C1247      C1252   1.411       .  A
C1247      C1256   1.403       .  A
S1248      H1264   1.406       .  S
S1250      H1261   1.408       .  S
C1252      C1253   1.401       .  A
C1252      S1257   1.809       .  S
C1253      C1254   1.406       .  A
C1253      H1258   1.083       .  S
C1254      C1255   1.417       .  A
C1255      C1256   1.402       .  A
C1255      S1259   1.799       .  S
C1256      H1260   1.084       .  S
S1257      H1262   1.407       .  S
S1259      H1263   1.407       .  S
C1265      C1266   1.403       .  A
C1265      C1270   1.400       .  A
C1265      H1275   1.084       .  S
C1266      C1267   1.414       .  A
C1266      C1271   1.484       .  S
C1267      C1268   1.401       .  A
C1267      S1272   1.803       .  S
C1268      C1269   1.403       .  A
C1268      H1273   1.084       .  S
C1269      C1270   1.414       .  A
C1270      S1274   1.804       .  S
C1271      C1276   1.409       .  A
C1271      C1280   1.401       .  A
S1272      H1288   1.406       .  S
S1274      H1285   1.407       .  S
C1276      C1277   1.404       .  A
C1276      S1281   1.806       .  S
C1277      C1278   1.408       .  A
C1277      H1282   1.083       .  S
C1278      C1279   1.417       .  A
C1279      C1280   1.403       .  A
C1279      S1283   1.810       .  S
C1280      H1284   1.083       .  S
S1281      H1286   1.407       .  S
S1283      H1287   1.407       .  S
C1289      C1290   1.401       .  A
C1289      C1294   1.399       .  A
C1289      H1299   1.084       .  S
C1290      C1291   1.411       .  A
C1290      C1295   1.481       .  S
C1291      C1292   1.401       .  A
C1291      S1296   1.804       .  S
C1292      C1293   1.408       .  A
C1292      H1297   1.084       .  S
C1293      C1294   1.418       .  A
C1294      S1298   1.802       .  S
C1295      C1300   1.407       .  A
C1295      C1304   1.401       .  A
S1296      H1312   1.405       .  S
S1298      H1309   1.408       .  S
C1300      C1301   1.404       .  A
C1300      S1305   1.806       .  S
C1301      C1302   1.409       .  A
C1301      H1306   1.082       .  S
C1302      C1303   1.418       .  A
C1303      C1304   1.400       .  A
C1303      S1307   1.802       .  S
C1304      H1308   1.084       .  S
S1305      H1310   1.407       .  S
S1307      H1311   1.407       .  S
C1313      C1314   1.402       .  A
C1313      C1318   1.399       .  A
C1313      H1323   1.084       .  S
C1314      C1315   1.414       .  A
C1314      C1319   1.481   1_554  S
C1315      C1316   1.401       .  A
C1315      S1320   1.805   1_554  S
C1316      C1317   1.405       .  A
C1316      H1321   1.084       .  S
C1317      C1318   1.415       .  A
C1318      S1322   1.803       .  S
C1319      C1324   1.410       .  A
C1319      C1328   1.402       .  A
S1320      H1336   1.405       .  S
S1322      H1333   1.407       .  S
C1324      C1325   1.404       .  A
C1324      S1329   1.806       .  S
C1325      C1326   1.404       .  A
C1325      H1330   1.083       .  S
C1326      C1327   1.414       .  A
C1327      C1328   1.399       .  A
C1327      S1331   1.803       .  S
C1328      H1332   1.084       .  S
S1329      H1334   1.407       .  S
S1331      H1335   1.406       .  S
C1337      C1338   1.402       .  A
C1337      C1342   1.399   1_554  A
C1337      H1347   1.084       .  S
C1338      C1339   1.410   1_554  A
C1338      C1343   1.467       .  S
C1339      C1340   1.393       .  A
C1339      S1344   1.805   1_556  S
C1340      C1341   1.400       .  A
C1340      H1345   1.084       .  S
C1341      C1342   1.411       .  A
C1342      S1346   1.804       .  S
C1343      C1348   1.405       .  A
C1343      C1352   1.401       .  A
S1344      H1360   1.404       .  S
S1346      H1357   1.405       .  S
C1348      C1349   1.396       .  A
C1348      S1353   1.807   1_554  S
C1349      C1350   1.406       .  A
C1349      H1354   1.083       .  S
C1350      C1351   1.413       .  A
C1351      C1352   1.397       .  A
C1351      S1355   1.803       .  S
C1352      H1356   1.084       .  S
S1353      H1358   1.407       .  S
S1355      H1359   1.407       .  S
C1361      C1362   1.402       .  A
C1361      C1366   1.399       .  A
C1361      H1371   1.084       .  S
C1362      C1363   1.413       .  A
C1362      C1367   1.473       .  S
C1363      C1364   1.398       .  A
C1363      S1368   1.808       .  S
C1364      C1365   1.403       .  A
C1364      H1369   1.084       .  S
C1365      C1366   1.413       .  A
C1366      S1370   1.803       .  S
C1367      C1372   1.408       .  A
C1367      C1376   1.401       .  A
S1368      H1384   1.402       .  S
S1370      H1381   1.407       .  S
C1372      C1373   1.399       .  A
C1372      S1377   1.806       .  S
C1373      C1374   1.402       .  A
C1373      H1378   1.083       .  S
C1374      C1375   1.415       .  A
C1375      C1376   1.400       .  A
C1375      S1379   1.804       .  S
C1376      H1380   1.084       .  S
S1377      H1382   1.407       .  S
S1379      H1383   1.406       .  S
C1385      C1386   1.399       .  A
C1385      C1390   1.396       .  A
C1385      H1395   1.084       .  S
C1386      C1387   1.412       .  A
C1386      C1391   1.476       .  S
C1387      C1388   1.401   1_554  A
C1387      S1392   1.803   1_554  S
C1388      C1389   1.403   1_556  A
C1388      H1393   1.084       .  S
C1389      C1390   1.416       .  A
C1390      S1394   1.805       .  S
C1391      C1396   1.408       .  A
C1391      C1400   1.397       .  A
S1392      H1408   1.404       .  S
S1394      H1405   1.407       .  S
C1396      C1397   1.404       .  A
C1396      S1401   1.807       .  S
C1397      C1398   1.408       .  A
C1397      H1402   1.082       .  S
C1398      C1399   1.419   1_545  A
C1399      C1400   1.397   1_565  A
C1399      S1403   1.798       .  S
C1400      H1404   1.084       .  S
S1401      H1406   1.407       .  S
S1403      H1407   1.407       .  S
C1409      C1410   1.404   1_654  A
C1409      C1414   1.401       .  A
C1409      H1419   1.084   1_554  S
C1410      C1411   1.413   1_556  A
C1410      C1415   1.480       .  S
C1411      C1412   1.397       .  A
C1411      S1416   1.805       .  S
C1412      C1413   1.401   1_455  A
C1412      H1417   1.084       .  S
C1413      C1414   1.411       .  A
C1414      S1418   1.806       .  S
C1415      C1420   1.409       .  A
C1415      C1424   1.398       .  A
S1416      H1432   1.405   1_554  S
S1418      H1429   1.404       .  S
C1420      C1421   1.409       .  A
C1420      S1425   1.801       .  S
C1421      C1422   1.407       .  A
C1421      H1426   1.083       .  S
C1422      C1423   1.416       .  A
C1423      C1424   1.395       .  A
C1423      S1427   1.805       .  S
C1424      H1428   1.084       .  S
S1425      H1430   1.405       .  S
S1427      H1431   1.407       .  S
C1433      C1434   1.403       .  A
C1433      C1438   1.399   1_455  A
C1433      H1443   1.084       .  S
C1434      C1435   1.411       .  A
C1434      C1439   1.472       .  S
C1435      C1436   1.395       .  A
C1435      S1440   1.805       .  S
C1436      C1437   1.401       .  A
C1436      H1441   1.084       .  S
C1437      C1438   1.411   1_455  A
C1438      S1442   1.804       .  S
C1439      C1444   1.408       .  A
C1439      C1448   1.400       .  A
S1440      H1456   1.405       .  S
S1442      H1453   1.406       .  S
C1444      C1445   1.400       .  A
C1444      S1449   1.807       .  S
C1445      C1446   1.403       .  A
C1445      H1450   1.083       .  S
C1446      C1447   1.415       .  A
C1447      C1448   1.397       .  A
C1447      S1451   1.805       .  S
C1448      H1452   1.084       .  S
S1449      H1454   1.407       .  S
S1451      H1455   1.407       .  S
C1457      C1458   1.404       .  A
C1457      C1462   1.397   1_545  A
C1457      H1467   1.084       .  S
C1458      C1459   1.412       .  A
C1458      C1463   1.477       .  S
C1459      C1460   1.394       .  A
C1459      S1464   1.804       .  S
C1460      C1461   1.401       .  A
C1460      H1465   1.084       .  S
C1461      C1462   1.410   1_545  A
C1462      S1466   1.801       .  S
C1463      C1468   1.407       .  A
C1463      C1472   1.405       .  A
S1464      H1480   1.407       .  S
S1466      H1477   1.406       .  S
C1468      C1469   1.402       .  A
C1468      S1473   1.806       .  S
C1469      C1470   1.406       .  A
C1469      H1474   1.083       .  S
C1470      C1471   1.408       .  A
C1471      C1472   1.396       .  A
C1471      S1475   1.809       .  S
C1472      H1476   1.083       .  S
S1473      H1478   1.407       .  S
S1475      H1479   1.407       .  S
