geometry optimzed in LAMMPS
_audit_creation_date              2020-11-30 
_audit_creation_method            'lammps2cif' 
_symmetry_space_group_name_H-M    'P1' 
_symmetry_Int_Tables_number       1 
_symmetry_cell_setting            triclinic 
loop_ 
_symmetry_equiv_pos_as_xyz 
  x,y,z 
_cell_length_a                    42.52127529 
_cell_length_b                    56.20174724816254 
_cell_length_c                    34.841700749250094 
_cell_angle_alpha                 90.06774803548316 
_cell_angle_beta                  89.9681809820986 
_cell_angle_gamma                 90.05054391546253 
loop_ 
_atom_site_label 
_atom_site_type_symbol 
_atom_site_fract_x 
_atom_site_fract_y 
_atom_site_fract_z 
_atom_site_charge 
O1          O  0.43519062  0.46226128  0.06791814    -0.74000
O2          O  0.46499401  0.43421478  0.03777536    -0.52900
C3          C  0.44202173  0.44055264  0.05954404     0.79800
O4          O  0.44015947  0.04245697  0.42433625    -0.58600
O5          O  0.46754467  0.07042586  0.45772890    -0.51600
C6          C  0.44646342  0.06417739  0.43317607     0.71800
O7          O  0.43641508  0.46238719  0.42917116    -0.73100
O8          O  0.46645864  0.43435293  0.45906271    -0.53700
C9          C  0.44351003  0.44072700  0.43743375     0.77800
O10         O  0.43801875  0.04269882  0.07204212    -0.58300
O11         O  0.46664241  0.07056839  0.03976040    -0.51400
C12         C  0.44460280  0.06435228  0.06294335     0.74400
Zr13       Zr  0.45526506  0.50212174  0.05558835     2.54700
O14         O  0.39815321  0.50299200  0.05991953    -0.78800
O15         O  0.45948991  0.00176121  0.12637990    -0.92200
Zr16       Zr  0.45739581  0.50205231  0.44124967     2.64700
O17         O  0.40044985  0.50300879  0.43354161    -0.97200
O18         O  0.46040997  0.00055333  0.37260473    -0.79300
O19         O  0.45574632  0.47930376  0.99846792    -0.82600
O20         O  0.45511495  0.02514278  0.99950706    -2.17300
O21         O  0.06309886  0.04220765  0.07778175    -0.66000
O22         O  0.03663506  0.06978856  0.04217685    -0.50600
C23         C  0.05671654  0.06374576  0.06794595     0.72800
O24         O  0.06725680  0.46206250  0.42866746    -0.58900
O25         O  0.03816192  0.43402294  0.45955067    -0.50900
C26         C  0.06027100  0.44034768  0.43645947     0.74600
O27         O  0.06816103  0.04271633  0.42997833    -0.70300
O28         O  0.03820399  0.07046698  0.46049082    -0.49000
C29         C  0.06081206  0.06436598  0.43803798     0.76000
O30         O  0.06649913  0.46167813  0.07268652    -0.65600
O31         O  0.03767263  0.43367735  0.04106865    -0.52800
C32         C  0.05970088  0.43998677  0.06423626     0.74300
Zr33       Zr  0.04840949  0.00202744  0.05805179     2.77500
O34         O  0.10566331  0.00310729  0.06024253    -0.96400
O35         O  0.04384600  0.99993005  0.12760840    -0.77200
Zr36       Zr  0.04970496  0.00264189  0.44424728     2.70100
O37         O  0.10668141  0.00238308  0.43743621    -0.78500
O38         O  0.04355108  0.00409096  0.37484282    -0.97500
Zr39       Zr  0.00234476  0.45625205  0.50025039     2.21500
Zr40       Zr  0.50224773  0.04799405  0.99973667     2.11100
O41         O  0.04975286  0.02513626  0.50185952    -2.46200
O42         O  0.04950379  0.47894507  0.50198150    -0.78200
O43         O  0.50196172  0.02579750  0.05812889    -0.70400
O44         O  0.00378647  0.47866536  0.44219688    -2.31400
O45         O  0.00127887  0.47828161  0.05845517    -2.27600
O46         O  0.50300481  0.02596067  0.44135724    -0.72200
H47         H  0.43685627  0.03539026  0.49872207     0.79800
H48         H  0.00408665  0.46838614  0.41996785     0.80900
H49         H  0.06810673  0.03500816  0.00153362     0.83100
H50         H  0.00064327  0.46782108  0.08043059     0.80700
H51         H  0.45001373  0.50952463  0.36085534     0.43800
H52         H  0.03237067  0.01923412  0.36990280     0.42700
H53         H  0.11396528  0.50859503  0.46823633     0.42400
H54         H  0.11174480  0.01584253  0.04207722     0.40300
H55         H  0.03180119  0.01432595  0.13481079     0.43500
H56         H  0.43963548  0.50116763  0.13500961     0.38200
H57         H  0.39099496  0.50261505  0.03288114     0.44400
H58         H  0.39308898  0.01761660  0.45419897     0.40800
H59         H  0.11075255  0.00963858  0.08590708     0.45700
H60         H  0.46996702  0.51685910  0.13176572     0.44400
H61         H  0.39685552  0.51025718  0.40803143     0.44600
H62         H  0.06508994  0.00685781  0.36499878     0.44900
O63         O  0.31714275  0.29157197  0.32280619    -0.74000
O64         O  0.28821909  0.31975854  0.29203196    -0.52900
C65         C  0.30989247  0.31333926  0.31561842     0.79800
O66         O  0.31354446  0.21231161  0.17270281    -0.58600
O67         O  0.28629973  0.18442439  0.20657694    -0.51600
C68         C  0.30716419  0.19065919  0.18167836     0.71800
O69         O  0.31577333  0.29206096  0.17525976    -0.73100
O70         O  0.28769408  0.32020029  0.20774508    -0.53700
C71         C  0.30918242  0.31375278  0.18388286     0.77800
O72         O  0.31790240  0.21151587  0.31923842    -0.58300
O73         O  0.28677590  0.18380463  0.28992117    -0.51400
C74         C  0.30988347  0.18991704  0.31164627     0.74400
Zr75       Zr  0.30032096  0.25174774  0.30457152     2.54700
O76         O  0.35754017  0.25249227  0.30264817    -0.78800
O77         O  0.29942340  0.24943200  0.37431565    -0.92200
Zr78       Zr  0.29720007  0.25225363  0.19064240     2.64700
O79         O  0.35444423  0.25211977  0.18767983    -0.97200
O80         O  0.29274940  0.25317127  0.12092037    -0.79300
O81         O  0.29977896  0.27500682  0.24783497    -0.82600
O82         O  0.29902255  0.22914006  0.24731564    -2.17300
O83         O  0.18996165  0.21282675  0.32613744    -0.66000
O84         O  0.21589039  0.18478058  0.29089642    -0.50600
C85         C  0.19541315  0.19118156  0.31612841     0.72800
O86         O  0.18603546  0.29269510  0.18059345    -0.58900
O87         O  0.21623308  0.32047340  0.21094352    -0.50900
C88         C  0.19340106  0.31428699  0.18885601     0.74600
O89         O  0.18617375  0.21304095  0.17816254    -0.70300
O90         O  0.21452977  0.18490624  0.20971325    -0.49000
C91         C  0.19243865  0.19128711  0.18673203     0.76000
O92         O  0.18972401  0.29249711  0.32434991    -0.65600
O93         O  0.21746513  0.32028654  0.29072099    -0.52800
C94         C  0.19610574  0.31407983  0.31486206     0.74300
Zr95       Zr  0.20792955  0.25258323  0.30909924     2.77500
O96         O  0.15125745  0.25383820  0.31930929    -0.96400
O97         O  0.21846468  0.25354849  0.37774026    -0.77200
Zr98       Zr  0.20444623  0.25280820  0.19475241     2.70100
O99         O  0.14726424  0.25369612  0.19740809    -0.78500
O100        O  0.20478478  0.25410149  0.12489643    -0.97500
Zr101      Zr  0.25295846  0.29809539  0.24991729     2.21500
Zr102      Zr  0.25161081  0.20654913  0.24924984     2.11100
O103        O  0.20497022  0.22999318  0.25173624    -2.46200
O104        O  0.20583493  0.27543370  0.25204397    -0.78200
O105        O  0.25374397  0.22861950  0.30766724    -0.70400
O106        O  0.25106754  0.27588687  0.19155851    -2.31400
O107        O  0.25443314  0.27561081  0.30790922    -2.28000
O108        O  0.25045866  0.22905995  0.19119753    -0.72200
H109        H  0.31723855  0.21889593  0.24644485     0.79800
H110        H  0.25054428  0.28625644  0.16947169     0.80900
H111        H  0.18635910  0.22013885  0.25242745     0.83100
H112        H  0.25501224  0.28588007  0.33014900     0.80700
H113        H  0.29229215  0.23627897  0.11284934     0.43800
H114        H  0.22095789  0.24234457  0.11728146     0.42700
H115        H  0.14202116  0.24778188  0.22339196     0.42400
H116        H  0.14247827  0.24258862  0.30022827     0.40300
H117        H  0.19991662  0.24581130  0.38955070     0.43500
H118        H  0.28589160  0.26283649  0.38250164     0.38200
H119        H  0.36311760  0.24331000  0.27935579     0.44400
H120        H  0.36100899  0.23856712  0.20393145     0.40800
H121        H  0.14778827  0.24604635  0.34443881     0.45700
H122        H  0.32088540  0.25417409  0.38225589     0.44400
H123        H  0.35944579  0.24706435  0.16113861     0.44600
H124        H  0.18457863  0.24672807  0.11722889     0.44900
C125        C  0.10075326  0.09955559  0.14266011     0.14000
C126        C  0.11297006  0.11819804  0.12022302     0.01000
C127        C  0.10565005  0.11915510  0.08090668     0.15900
C128        C  0.08642534  0.10184836  0.06431270     0.25400
C129        C  0.07481131  0.08290912  0.08651355    -0.41000
C130        C  0.08212696  0.08187193  0.12582821     0.32400
C131        C  0.13320498  0.13674204  0.13765046     0.01000
F132        F  0.11786840  0.13651508  0.05827448    -0.13300
F133        F  0.07079748  0.06396794  0.14804607    -0.13800
C134        C  0.16065181  0.13051306  0.15766734     0.16000
C135        C  0.17991415  0.14810932  0.17361373     0.25400
C136        C  0.17227978  0.17242837  0.16949631    -0.40900
C137        C  0.14455030  0.17850250  0.14942812     0.32300
C138        C  0.12531702  0.16085597  0.13380262     0.14000
F139        F  0.16925356  0.10734667  0.16103895    -0.13300
F140        F  0.13548214  0.20151867  0.14528306    -0.13800
F141        F  0.20615734  0.14118070  0.19275622    -0.16100
F142        F  0.09857198  0.16736953  0.11530556    -0.14600
F143        F  0.10647489  0.09868018  0.18097273    -0.14600
F144        F  0.08030238  0.10304346  0.02610094    -0.16100
C145        C  0.14647333  0.13547031  0.32990018     0.14000
C146        C  0.13658465  0.13799214  0.36815381     0.01000
C147        C  0.14611613  0.15799603  0.38930649     0.15900
C148        C  0.16568525  0.17510931  0.37262066     0.25400
C149        C  0.17593750  0.17253044  0.33436524    -0.41000
C150        C  0.16593742  0.15260478  0.31308329     0.32400
C151        C  0.11708239  0.11936934  0.38628595     0.01000
F152        F  0.13691551  0.16070872  0.42638542    -0.13300
F153        F  0.17401967  0.15014377  0.27557791    -0.13800
C154        C  0.12915970  0.09633525  0.39078760     0.16000
C155        C  0.11102984  0.07858366  0.40795700     0.25400
C156        C  0.08013974  0.08344741  0.42050689    -0.40900
C157        C  0.06822079  0.10671068  0.41630282     0.32300
C158        C  0.08662066  0.12451260  0.39945205     0.14000
F159        F  0.15889759  0.09116788  0.37926532    -0.13300
F160        F  0.03859044  0.11220663  0.42784323    -0.13800
F161        F  0.12416880  0.05681317  0.41321174    -0.16100
F162        F  0.07450400  0.14670814  0.39538189    -0.14600
F163        F  0.13668676  0.11661381  0.30861026    -0.14600
F164        F  0.17508624  0.19397409  0.39414709    -0.16100
C165        C  0.12362968  0.34652333  0.14638124     0.14000
C166        C  0.13729745  0.36810699  0.13497259     0.01000
C167        C  0.16928896  0.37231263  0.14241066     0.15900
C168        C  0.18746490  0.35503070  0.16073630     0.25400
C169        C  0.17400246  0.33315625  0.17142823    -0.41000
C170        C  0.14179222  0.32916903  0.16441954     0.32400
C171        C  0.11781726  0.38647103  0.11639148     0.01000
F172        F  0.18304175  0.39299668  0.13126302    -0.13300
F173        F  0.12764352  0.30870154  0.17589796    -0.13800
C174        C  0.11380756  0.40865244  0.13412246     0.16000
C175        C  0.09451715  0.42582767  0.11748285     0.25400
C176        C  0.07900281  0.42121146  0.08246943    -0.40900
C177        C  0.08315104  0.39887802  0.06468814     0.32300
C178        C  0.10242757  0.38167356  0.08157271     0.14000
F179        F  0.12811648  0.41350842  0.16808390    -0.13300
F180        F  0.06931364  0.39386192  0.03049768    -0.13800
F181        F  0.09059009  0.44683109  0.13618073    -0.16100
F182        F  0.10658739  0.36045021  0.06359581    -0.14600
F183        F  0.09247845  0.34247737  0.14073099    -0.14600
F184        F  0.21839678  0.35944892  0.16703917    -0.16100
C185        C  0.35967791  0.15900993  0.10965087     0.14000
C186        C  0.36493999  0.13718321  0.12803042     0.01000
C187        C  0.35064179  0.13274018  0.16366008     0.15900
C188        C  0.33128236  0.14983566  0.18072585     0.25400
C189        C  0.32601411  0.17185237  0.16253330    -0.41000
C190        C  0.34056316  0.17624239  0.12676325     0.32400
C191        C  0.38531030  0.11894092  0.11021671     0.01000
F192        F  0.35622161  0.11202932  0.18249428    -0.13300
F193        F  0.33622189  0.19717375  0.10807659    -0.13800
C194        C  0.41699178  0.12390282  0.10186708     0.16000
C195        C  0.43638688  0.10627661  0.08620297     0.25400
C196        C  0.42449151  0.08325896  0.07935257    -0.40900
C197        C  0.39259869  0.07852046  0.08726244     0.32300
C198        C  0.37319890  0.09623836  0.10226764     0.14000
F199        F  0.42933593  0.14564750  0.10980990    -0.13300
F200        F  0.37984386  0.05689364  0.07942862    -0.13800
F201        F  0.46692901  0.11158839  0.07863707    -0.16100
F202        F  0.34234582  0.09132697  0.10854243    -0.14600
F203        F  0.37280393  0.16354240  0.07486564    -0.14600
F204        F  0.31880552  0.14514847  0.21579353    -0.16100
C205        C  0.34610932  0.37324812  0.34058390     0.14000
C206        C  0.36524078  0.36736591  0.37199665     0.01000
C207        C  0.36551675  0.34386685  0.38552417     0.15900
C208        C  0.34731680  0.32640773  0.36758218     0.25400
C209        C  0.32813350  0.33215592  0.33579048    -0.41000
C210        C  0.32748150  0.35594327  0.32289838     0.32400
C211        C  0.38522011  0.38575289  0.39013436     0.01000
F212        F  0.38332406  0.33781316  0.41635193    -0.13300
F213        F  0.30956713  0.36249118  0.29245008    -0.13800
C214        C  0.37174687  0.40692776  0.40391554     0.16000
C215        C  0.39076190  0.42492670  0.41894667     0.25400
C216        C  0.42352318  0.42180149  0.42127599    -0.40900
C217        C  0.43689874  0.40031340  0.40862362     0.32300
C218        C  0.41793852  0.38254364  0.39274895     0.14000
F219        F  0.34008207  0.41003944  0.40321745    -0.13300
F220        F  0.46845851  0.39682397  0.41048670    -0.13800
F221        F  0.37704372  0.44515636  0.43216879    -0.16100
F222        F  0.43165188  0.36248837  0.37887678    -0.14600
F223        F  0.34625705  0.39568801  0.32616698    -0.14600
F224        F  0.34852643  0.30389984  0.38164226    -0.16100
C225        C  0.38137367  0.15627471  0.34589324     0.14000
C226        C  0.36780715  0.13604636  0.36267228     0.01000
C227        C  0.33497528  0.13306223  0.36145236     0.15900
C228        C  0.31591557  0.15036853  0.34428974     0.25400
C229        C  0.32949400  0.17097131  0.32847294    -0.41000
C230        C  0.36240340  0.17359380  0.32896016     0.32400
C231        C  0.38809929  0.11785161  0.38064249     0.01000
F232        F  0.32141022  0.11356798  0.37744426    -0.13300
F233        F  0.37626845  0.19263435  0.31193113    -0.13800
C234        C  0.40568332  0.12326710  0.41362108     0.16000
C235        C  0.42511263  0.10606483  0.43038072     0.25400
C236        C  0.42734344  0.08304110  0.41433204    -0.40900
C237        C  0.40972640  0.07787194  0.38093821     0.32300
C238        C  0.39037787  0.09511809  0.36436829     0.14000
F239        F  0.40347652  0.14511581  0.43008709    -0.13300
F240        F  0.41126704  0.05615398  0.36392798    -0.13800
F241        F  0.44093801  0.11183015  0.46293756    -0.16100
F242        F  0.37413437  0.08973069  0.33195071    -0.14600
F243        F  0.41310392  0.15896562  0.34516661    -0.14600
F244        F  0.28423363  0.14730426  0.34402501    -0.16100
C245        C  0.08831279  0.38013553  0.39993746     0.14000
C246        C  0.11688722  0.38626828  0.38217960     0.01000
C247        C  0.12654541  0.41012470  0.38202413     0.15900
C248        C  0.10805167  0.42760782  0.39920785     0.25400
C249        C  0.07945927  0.42159669  0.41754011    -0.41000
C250        C  0.06990074  0.39755240  0.41776589     0.32400
C251        C  0.13720272  0.36778605  0.36484057     0.01000
F252        F  0.15453171  0.41646961  0.36623115    -0.13300
F253        F  0.04269495  0.39076918  0.43500862    -0.13800
C254        C  0.14786322  0.37006319  0.32678799     0.16000
C255        C  0.16788728  0.35298727  0.31093506     0.25400
C256        C  0.17686662  0.33297463  0.33250612    -0.40900
C257        C  0.16604728  0.33064749  0.37049839     0.32300
C258        C  0.14678010  0.34808177  0.38667849     0.14000
F259        F  0.13835369  0.38858825  0.30466808    -0.13300
F260        F  0.17463392  0.31171916  0.39229046    -0.13800
F261        F  0.17752783  0.35559701  0.27400457    -0.16100
F262        F  0.13801505  0.34597681  0.42401007    -0.14600
F263        F  0.07807409  0.35724118  0.39975735    -0.14600
F264        F  0.11885458  0.45035129  0.39865461    -0.16100
C265        C  0.33169990  0.37117104  0.13411540     0.14000
C266        C  0.36382278  0.36742122  0.12685638     0.01000
C267        C  0.37797154  0.34614584  0.13891863     0.15900
C268        C  0.36020180  0.32877305  0.15769770     0.25400
C269        C  0.32796533  0.33243671  0.16485053    -0.41000
C270        C  0.31392176  0.35384392  0.15303481     0.32400
C271        C  0.38298593  0.38620975  0.10859087     0.01000
F272        F  0.40923993  0.34252202  0.13355010    -0.13300
F273        F  0.28280943  0.35773359  0.15884711    -0.13800
C274        C  0.38609234  0.40840632  0.12659271     0.16000
C275        C  0.40524635  0.42597775  0.11067339     0.25400
C276        C  0.42179971  0.42170288  0.07626685    -0.40900
C277        C  0.41826448  0.39946702  0.05790939     0.32300
C278        C  0.39890424  0.38191655  0.07392110     0.14000
F279        F  0.37108812  0.41287916  0.16024884    -0.13300
F280        F  0.43295347  0.39484000  0.02408959    -0.13800
F281        F  0.40817681  0.44697580  0.12965526    -0.16100
F282        F  0.39524084  0.36086111  0.05527265    -0.14600
F283        F  0.31750684  0.39156533  0.12252534    -0.14600
F284        F  0.37474515  0.30865499  0.16992298    -0.16100
O285        O  0.43487965  0.46246132  0.56873991    -0.74000
O286        O  0.46464132  0.43434408  0.53876693    -0.52900
C287        C  0.44166172  0.44074513  0.56050544     0.79800
O288        O  0.43929930  0.04211104  0.92523862    -0.58600
O289        O  0.46741799  0.07016154  0.95752832    -0.51600
C290        C  0.44595189  0.06385028  0.93349959     0.71800
O291        O  0.43707886  0.46194129  0.92917382    -0.73100
O292        O  0.46755562  0.43405036  0.95869564    -0.53700
C293        C  0.44443146  0.44029746  0.93728758     0.77800
O294        O  0.43793971  0.04287649  0.57160363    -0.58300
O295        O  0.46679076  0.07070694  0.53953121    -0.51400
C296        C  0.44466279  0.06454056  0.56261371     0.74400
Zr297      Zr  0.45516927  0.50209388  0.55560076     2.54700
O298        O  0.39799090  0.50291055  0.55802709    -0.78800
O299        O  0.45936274  0.00230385  0.62598349    -0.92200
Zr300      Zr  0.45724560  0.50190679  0.94131032     2.64700
O301        O  0.40004687  0.50257513  0.93728143    -0.97200
O302        O  0.46184142  0.00050277  0.87312049    -0.79300
O303        O  0.45556241  0.47935961  0.49842744    -0.82600
O304        O  0.45524974  0.02531357  0.49915673    -2.17300
O305        O  0.06234709  0.04210814  0.57977938    -0.66000
O306        O  0.03687062  0.06977057  0.54328650    -0.50600
C307        C  0.05644467  0.06366636  0.56956125     0.72800
O308        O  0.06755284  0.46220123  0.92801377    -0.58900
O309        O  0.03887976  0.43409927  0.95946647    -0.50900
C310        C  0.06075409  0.44048566  0.93609820     0.74600
O311        O  0.06823311  0.04186825  0.92828988    -0.70300
O312        O  0.03870714  0.06971944  0.95921515    -0.49000
C313        C  0.06111716  0.06353778  0.93646990     0.76000
O314        O  0.06658735  0.46161253  0.57248008    -0.65600
O315        O  0.03748923  0.43372276  0.54098305    -0.52800
C316        C  0.05964161  0.43996690  0.56401569     0.74300
Zr317      Zr  0.04821486  0.00202230  0.55868679     2.77500
O318        O  0.10547461  0.00336789  0.55888692    -0.96400
O319        O  0.04524507  0.99977185  0.62836881    -0.77200
Zr320      Zr  0.04980063  0.00200556  0.94371416     2.70100
O321        O  0.10690314  0.00151538  0.93880409    -0.78500
O322        O  0.04434229  0.00185711  0.87418064    -0.97500
Zr323      Zr  0.00279077  0.45619668  0.99994948     2.21500
Zr324      Zr  0.50241829  0.04813008  0.49960675     2.11100
O325        O  0.04977221  0.02484596  0.00093584    -2.46200
O326        O  0.04977983  0.47905893  0.00185297    -0.78200
O327        O  0.50182969  0.02595453  0.55790095    -0.70400
O328        O  0.00423229  0.47861773  0.94188149    -2.31400
O329        O  0.00136905  0.47836444  0.55880184    -2.27600
O330        O  0.50282546  0.02572708  0.94163489    -0.72200
H331        H  0.43670301  0.03520381  0.99913297     0.79800
H332        H  0.00457686  0.46827365  0.91973492     0.80900
H333        H  0.06808387  0.03529626  0.50265674     0.83100
H334        H  0.00085476  0.46788106  0.58074585     0.80700
H335        H  0.44415692  0.50722122  0.86155114     0.43800
H336        H  0.03853710  0.01840392  0.86751619     0.42700
H337        H  0.11389063  0.50884896  0.96952909     0.42400
H338        H  0.11103173  0.01741670  0.54314774     0.40300
H339        H  0.02994267  0.01225532  0.63565416     0.43500
H340        H  0.43700039  0.50086641  0.63423955     0.38200
H341        H  0.39131495  0.49692405  0.53255714     0.44400
H342        H  0.39248237  0.01541562  0.95631245     0.40800
H343        H  0.11111517  0.00797379  0.58544220     0.45700
H344        H  0.46703884  0.51698177  0.63245978     0.44400
H345        H  0.39543585  0.50753816  0.91061910     0.44600
H346        H  0.06609810  0.00002536  0.86448663     0.44900
O347        O  0.31771525  0.29142116  0.82223146    -0.74000
O348        O  0.28827110  0.31969384  0.79239847    -0.52900
C349        C  0.31030999  0.31320418  0.81542075     0.79800
O350        O  0.31376888  0.21228480  0.67328818    -0.58600
O351        O  0.28640414  0.18435162  0.70697017    -0.51600
C352        C  0.30732254  0.19062673  0.68215512     0.71800
O353        O  0.31592697  0.29195252  0.67591362    -0.73100
O354        O  0.28789596  0.32015091  0.70834281    -0.53700
C355        C  0.30933256  0.31365209  0.68446272     0.77800
O356        O  0.31767289  0.21130046  0.81944695    -0.58300
O357        O  0.28634674  0.18364586  0.79036432    -0.51400
C358        C  0.30953968  0.18970879  0.81194705     0.74400
Zr359      Zr  0.29996629  0.25161273  0.80542170     2.54700
O360        O  0.35719065  0.25184369  0.80739013    -0.78800
O361        O  0.29599142  0.24971860  0.87504738    -0.92200
Zr362      Zr  0.29746736  0.25215658  0.69155269     2.64700
O363        O  0.35475096  0.25216161  0.68959722    -0.97200
O364        O  0.29403368  0.25211170  0.62182567    -0.79300
O365        O  0.29977477  0.27491028  0.74870612    -0.82600
O366        O  0.29909632  0.22901750  0.74812467    -2.17300
O367        O  0.19058650  0.21275618  0.82733958    -0.66000
O368        O  0.21605803  0.18487930  0.79129128    -0.50600
C369        C  0.19588542  0.19116667  0.81691854     0.72800
O370        O  0.18606619  0.29262189  0.68082883    -0.58900
O371        O  0.21658784  0.32047658  0.71048596    -0.50900
C372        C  0.19360229  0.31424941  0.68860767     0.74600
O373        O  0.18606453  0.21306990  0.67870896    -0.70300
O374        O  0.21439217  0.18489477  0.71021752    -0.49000
C375        C  0.19221193  0.19131374  0.68739402     0.76000
O376        O  0.18875194  0.29243434  0.82309777    -0.65600
O377        O  0.21730202  0.32029372  0.79067241    -0.52800
C378        C  0.19540228  0.31403537  0.81402955     0.74300
Zr379      Zr  0.20767068  0.25255290  0.80931515     2.77500
O380        O  0.15077940  0.25250167  0.81776513    -0.96400
O381        O  0.21635978  0.25481193  0.87828034    -0.77200
Zr382      Zr  0.20452500  0.25278673  0.69522975     2.70100
O383        O  0.14739251  0.25329727  0.69943695    -0.78500
O384        O  0.20478388  0.25427069  0.62542382    -0.97500
Zr385      Zr  0.25298124  0.29808673  0.75025182     2.21500
Zr386      Zr  0.25162496  0.20651479  0.74956809     2.11100
O387        O  0.20497451  0.22990157  0.75207004    -2.46200
O388        O  0.20582226  0.27549453  0.75236346    -0.78200
O389        O  0.25343234  0.22851271  0.80806724    -0.70400
O390        O  0.25127354  0.27574701  0.69207172    -2.31400
O391        O  0.25418760  0.27560683  0.80832629    -2.28000
O392        O  0.25059631  0.22910424  0.69172011    -0.72200
H393        H  0.31732299  0.21878300  0.74728946     0.79800
H394        H  0.25083301  0.28606232  0.66992278     0.80900
H395        H  0.18635882  0.22004453  0.75277439     0.83100
H396        H  0.25470922  0.28592612  0.83050142     0.80700
H397        H  0.27886727  0.23927227  0.61575793     0.43800
H398        H  0.21769015  0.24044751  0.61755065     0.42700
H399        H  0.14295436  0.25527084  0.72716640     0.42400
H400        H  0.14301512  0.23936724  0.80133548     0.40300
H401        H  0.22575086  0.23926227  0.88505312     0.43500
H402        H  0.28527217  0.26464867  0.88255236     0.38200
H403        H  0.36366900  0.24338417  0.78373636     0.44400
H404        H  0.36118656  0.24059815  0.70950444     0.40800
H405        H  0.14737476  0.24689669  0.84438407     0.45700
H406        H  0.31787677  0.25177068  0.88414152     0.44400
H407        H  0.36023943  0.24439920  0.66496478     0.44600
H408        H  0.18306182  0.24991324  0.61796987     0.44900
C409        C  0.09998137  0.09991915  0.64417398     0.14000
C410        C  0.11221095  0.11846031  0.62155751     0.01000
C411        C  0.10526560  0.11913814  0.58215181     0.15900
C412        C  0.08634490  0.10162939  0.56563313     0.25400
C413        C  0.07455772  0.08283570  0.58806447    -0.41000
C414        C  0.08160636  0.08205592  0.62746396     0.32400
C415        C  0.13246879  0.13697993  0.63885212     0.01000
F416        F  0.11767308  0.13634568  0.55936206    -0.13300
F417        F  0.07039247  0.06419699  0.64985184    -0.13800
C418        C  0.15981484  0.13065324  0.65894466     0.16000
C419        C  0.17918578  0.14816897  0.67484080     0.25400
C420        C  0.17178535  0.17251479  0.67051238    -0.40900
C421        C  0.14396078  0.17868169  0.65069673     0.32300
C422        C  0.12463168  0.16109849  0.63506516     0.14000
F423        F  0.16811750  0.10743961  0.66260184    -0.13300
F424        F  0.13481164  0.20171082  0.64701788    -0.13800
F425        F  0.20518651  0.14111522  0.69434461    -0.16100
F426        F  0.09779951  0.16765709  0.61679188    -0.14600
F427        F  0.10561133  0.09925986  0.68251944    -0.14600
F428        F  0.08078702  0.10243654  0.52726165    -0.16100
C429        C  0.14830724  0.13481138  0.82983999     0.14000
C430        C  0.13738754  0.13734961  0.86767040     0.01000
C431        C  0.14588044  0.15760931  0.88891939     0.15900
C432        C  0.16525888  0.17500012  0.87268079     0.25400
C433        C  0.17650149  0.17238152  0.83485719    -0.41000
C434        C  0.16764115  0.15216566  0.81353497     0.32400
C435        C  0.11770969  0.11858383  0.88517285     0.01000
F436        F  0.13590170  0.16031034  0.92570120    -0.13300
F437        F  0.17671482  0.14958408  0.77638919    -0.13800
C438        C  0.12921563  0.09527059  0.88804404     0.16000
C439        C  0.11095830  0.07745934  0.90485251     0.25400
C440        C  0.08051011  0.08255889  0.91878768    -0.40900
C441        C  0.06909825  0.10604269  0.91590850     0.32300
C442        C  0.08756578  0.12385912  0.89927015     0.14000
F443        F  0.15852674  0.08984592  0.87523966    -0.13300
F444        F  0.03986587  0.11178114  0.92857812    -0.13800
F445        F  0.12359393  0.05538278  0.90835013    -0.16100
F446        F  0.07575339  0.14621493  0.89623884    -0.14600
F447        F  0.13968096  0.11570411  0.80838625    -0.14600
F448        F  0.17345918  0.19417493  0.89423377    -0.16100
C449        C  0.12364572  0.34611270  0.64550585     0.14000
C450        C  0.13704143  0.36784546  0.63438249     0.01000
C451        C  0.16898188  0.37222218  0.64191916     0.15900
C452        C  0.18735146  0.35500979  0.66019116     0.25400
C453        C  0.17411275  0.33304840  0.67090224    -0.41000
C454        C  0.14195824  0.32886927  0.66362769     0.32400
C455        C  0.11737266  0.38621153  0.61602457     0.01000
F456        F  0.18249121  0.39303459  0.63093726    -0.13300
F457        F  0.12796661  0.30830706  0.67494096    -0.13800
C458        C  0.11345500  0.40838724  0.63384862     0.16000
C459        C  0.09431157  0.42566032  0.61723264     0.25400
C460        C  0.07887090  0.42115481  0.58214637    -0.40900
C461        C  0.08285926  0.39884427  0.56429618     0.32300
C462        C  0.10188570  0.38150222  0.58121905     0.14000
F463        F  0.12766716  0.41313430  0.66790876    -0.13300
F464        F  0.06907936  0.39398362  0.53000997    -0.13800
F465        F  0.09040930  0.44663261  0.63604345    -0.16100
F466        F  0.10566324  0.36022658  0.56329364    -0.14600
F467        F  0.09259170  0.34180872  0.63954847    -0.14600
F468        F  0.21823924  0.35960588  0.66643897    -0.16100
C469        C  0.35862398  0.15885335  0.60905959     0.14000
C470        C  0.36565586  0.13762410  0.62833307     0.01000
C471        C  0.35272870  0.13351041  0.66484558     0.15900
C472        C  0.33316755  0.15044272  0.68203711     0.25400
C473        C  0.32621139  0.17188486  0.66297431    -0.41000
C474        C  0.33917554  0.17587729  0.62621482     0.32400
C475        C  0.38588242  0.11941449  0.61019525     0.01000
F476        F  0.35962652  0.11321446  0.68419455    -0.13300
F477        F  0.33272008  0.19614286  0.60655320    -0.13800
C478        C  0.41744253  0.12436118  0.60117277     0.16000
C479        C  0.43668009  0.10662816  0.58545397     0.25400
C480        C  0.42470232  0.08356116  0.57907599    -0.40900
C481        C  0.39287264  0.07890967  0.58748426     0.32300
C482        C  0.37366641  0.09671299  0.60261370     0.14000
F483        F  0.42981055  0.14618796  0.60845220    -0.13300
F484        F  0.37998677  0.05727065  0.58009116    -0.13800
F485        F  0.46715711  0.11188516  0.57738565    -0.16100
F486        F  0.34286246  0.09190014  0.60939357    -0.14600
F487        F  0.37011655  0.16287942  0.57327192    -0.14600
F488        F  0.32204667  0.14619485  0.71792281    -0.16100
C489        C  0.34631632  0.37307424  0.84117152     0.14000
C490        C  0.36575346  0.36699959  0.87223550     0.01000
C491        C  0.36623375  0.34339488  0.88526799     0.15900
C492        C  0.34808813  0.32601331  0.86708319     0.25400
C493        C  0.32870156  0.33193419  0.83557082    -0.41000
C494        C  0.32772764  0.35582829  0.82325138     0.32400
C495        C  0.38584787  0.38527944  0.89051766     0.01000
F496        F  0.38410158  0.33716794  0.91594927    -0.13300
F497        F  0.30942638  0.36256216  0.79325161    -0.13800
C498        C  0.37250162  0.40644497  0.90450751     0.16000
C499        C  0.39163715  0.42441860  0.91936646     0.25400
C500        C  0.42440444  0.42127852  0.92142606    -0.40900
C501        C  0.43764457  0.39969944  0.90892384     0.32300
C502        C  0.41856645  0.38198311  0.89306302     0.14000
F503        F  0.34084175  0.40959588  0.90414069    -0.13300
F504        F  0.46916585  0.39605727  0.91090038    -0.13800
F505        F  0.37802337  0.44466173  0.93268853    -0.16100
F506        F  0.43217395  0.36191355  0.87907960    -0.14600
F507        F  0.34603707  0.39566522  0.82738422    -0.14600
F508        F  0.34943113  0.30341901  0.88076489    -0.16100
C509        C  0.38063692  0.15618964  0.84760793     0.14000
C510        C  0.36701259  0.13548751  0.86277448     0.01000
C511        C  0.33429101  0.13216774  0.85988249     0.15900
C512        C  0.31540949  0.14962950  0.84287316     0.25400
C513        C  0.32903136  0.17069173  0.82874866    -0.41000
C514        C  0.36184676  0.17364087  0.83080126     0.32400
C515        C  0.38718733  0.11726951  0.88095625     0.01000
F516        F  0.32060108  0.11221641  0.87416404    -0.13300
F517        F  0.37586293  0.19318030  0.81551430    -0.13800
C518        C  0.40553739  0.12296545  0.91321768     0.16000
C519        C  0.42514966  0.10586524  0.92990048     0.25400
C520        C  0.42677857  0.08264073  0.91456276    -0.40900
C521        C  0.40851079  0.07720013  0.88180121     0.32300
C522        C  0.38888289  0.09431176  0.86538296     0.14000
F523        F  0.40395155  0.14502191  0.92906518    -0.13300
F524        F  0.40980028  0.05537293  0.86512707    -0.13800
F525        F  0.44187067  0.11197948  0.96161165    -0.16100
F526        F  0.37189265  0.08857662  0.83369528    -0.14600
F527        F  0.41230904  0.15924921  0.84832127    -0.14600
F528        F  0.28380425  0.14626590  0.84122877    -0.16100
C529        C  0.08690129  0.38088318  0.89556517     0.14000
C530        C  0.11686520  0.38654779  0.88120675     0.01000
C531        C  0.12806345  0.40992987  0.88443540     0.15900
C532        C  0.10977814  0.42738987  0.90202019     0.25400
C533        C  0.07985947  0.42177824  0.91715945    -0.41000
C534        C  0.06868353  0.39824170  0.91380901     0.32400
C535        C  0.13689373  0.36797829  0.86382265     0.01000
F536        F  0.15714627  0.41578027  0.87132680    -0.13300
F537        F  0.03996442  0.39201667  0.92758662    -0.13800
C538        C  0.14895270  0.37085486  0.82654725     0.16000
C539        C  0.16855268  0.35354631  0.81058203     0.25400
C540        C  0.17599755  0.33288916  0.83146215    -0.40900
C541        C  0.16378421  0.33001118  0.86872892     0.32300
C542        C  0.14468385  0.34753197  0.88489426     0.14000
F543        F  0.14126660  0.39024890  0.80533186    -0.13300
F544        F  0.17086951  0.31045565  0.88988787    -0.13800
F545        F  0.17935498  0.35663928  0.77423249    -0.16100
F546        F  0.13436422  0.34479041  0.92152132    -0.14600
F547        F  0.07507409  0.35858140  0.89131665    -0.14600
F548        F  0.12192998  0.44966680  0.90503649    -0.16100
C549        C  0.33117960  0.37067983  0.63331325     0.14000
C550        C  0.36353031  0.36736800  0.62715021     0.01000
C551        C  0.37797622  0.34637271  0.63994301     0.15900
C552        C  0.36032574  0.32892736  0.65869406     0.25400
C553        C  0.32795527  0.33229923  0.66520884    -0.41000
C554        C  0.31355436  0.35333397  0.65237602     0.32400
C555        C  0.38255976  0.38628304  0.60908599     0.01000
F556        F  0.40938055  0.34308609  0.63523313    -0.13300
F557        F  0.28225083  0.35679216  0.65728384    -0.13800
C558        C  0.38484779  0.40865475  0.62672084     0.16000
C559        C  0.40403354  0.42631042  0.61103236     0.25400
C560        C  0.42130325  0.42194020  0.57714607    -0.40900
C561        C  0.41831713  0.39959469  0.55902312     0.32300
C562        C  0.39917706  0.38191839  0.57496713     0.14000
F563        F  0.36905066  0.41319855  0.65981739    -0.13300
F564        F  0.43329868  0.39497977  0.52539916    -0.13800
F565        F  0.40619887  0.44748117  0.62967264    -0.16100
F566        F  0.39647228  0.36062285  0.55680298    -0.14600
F567        F  0.31662561  0.39062863  0.62044577    -0.14600
F568        F  0.37507759  0.30902971  0.67146818    -0.16100
O569        O  0.43670878  0.96254353  0.07071233    -0.74000
O570        O  0.46583346  0.93450915  0.03939737    -0.52900
C571        C  0.44354699  0.94086895  0.06218663     0.79800
O572        O  0.44177957  0.54220965  0.42283625    -0.58600
O573        O  0.46903259  0.56991380  0.45712995    -0.51600
C574        C  0.44838599  0.56385741  0.43189127     0.71800
O575        O  0.43652698  0.96280221  0.42955867    -0.73100
O576        O  0.46723008  0.93467830  0.45821523    -0.53700
C577        C  0.44398388  0.94113574  0.43701500     0.77800
O578        O  0.43691896  0.54218408  0.07053143    -0.58300
O579        O  0.46609847  0.57007274  0.03907582    -0.51400
C580        C  0.44361175  0.56384978  0.06166008     0.74400
Zr581      Zr  0.45560570  0.00246151  0.05668344     2.54700
O582        O  0.39841005  0.00306439  0.05961220    -0.78800
O583        O  0.46142882  0.50100475  0.12500094    -0.92200
Zr584      Zr  0.45664079  0.00246242  0.44223762     2.64700
O585        O  0.39936723  0.00317120  0.43982159    -0.97200
O586        O  0.46626169  0.49914583  0.37236318    -0.79300
O587        O  0.45567972  0.97945720  0.99969863    -0.82600
O588        O  0.45562082  0.52478794  0.99835061    -2.17300
O589        O  0.06311883  0.54151068  0.07979433    -0.66000
O590        O  0.03735293  0.56929222  0.04385802    -0.50600
C591        C  0.05717034  0.56310718  0.06992611     0.72800
O592        O  0.06840135  0.96276907  0.42883054    -0.58900
O593        O  0.03895176  0.93459377  0.45925205    -0.50900
C594        C  0.06142439  0.94101939  0.43674048     0.74600
O595        O  0.06950590  0.54165741  0.42983646    -0.70300
O596        O  0.04016036  0.56956276  0.46097176    -0.49000
C597        C  0.06258015  0.56333369  0.43823742     0.76000
O598        O  0.06641822  0.96198006  0.07383849    -0.65600
O599        O  0.03788431  0.93400388  0.04165186    -0.52800
C600        C  0.05947110  0.94025556  0.06553429     0.74300
Zr601      Zr  0.04768699  0.50164847  0.05925961     2.77500
O602        O  0.10486876  0.50230300  0.06362009    -0.96400
O603        O  0.04106365  0.49829091  0.12846183    -0.77200
Zr604      Zr  0.05029048  0.50196462  0.44513971     2.70100
O605        O  0.10748229  0.50018022  0.44454390    -0.78500
O606        O  0.04759683  0.50279073  0.37538049    -0.97500
Zr607      Zr  0.00269220  0.95654846  0.49986894     2.21500
Zr608      Zr  0.50278329  0.54769845  0.99996199     2.11100
O609        O  0.05025914  0.52459904  0.50251288    -2.46200
O610        O  0.04972768  0.97950723  0.50115562    -0.78200
O611        O  0.50158601  0.52549769  0.05816113    -0.70400
O612        O  0.00342757  0.97913500  0.44187586    -2.31400
O613        O  0.00201469  0.97869956  0.05807189    -2.27600
O614        O  0.50382826  0.52545447  0.44185363    -0.72200
H615        H  0.43736482  0.53496912  0.49767996     0.79800
H616        H  0.00366772  0.96889322  0.41959365     0.80900
H617        H  0.06845358  0.53471935  0.00344479     0.83100
H618        H  0.00164876  0.96837788  0.08022052     0.80700
H619        H  0.47256931  0.01490205  0.36540271     0.43800
H620        H  0.03434348  0.51678375  0.36941108     0.42700
H621        H  0.11450081  0.01013231  0.46111622     0.42400
H622        H  0.11145088  0.51663391  0.04918222     0.40300
H623        H  0.05507850  0.51061962  0.13941131     0.43500
H624        H  0.43890121  0.00781778  0.13539609     0.38200
H625        H  0.39182255  0.00923223  0.03425359     0.44400
H626        H  0.39308286  0.51511169  0.45215493     0.40800
H627        H  0.10933189  0.50616754  0.09080911     0.45700
H628        H  0.47454697  0.01463265  0.13264472     0.44400
H629        H  0.39428577  0.00678652  0.41272157     0.44600
H630        H  0.06900894  0.50748418  0.36714410     0.44900
O631        O  0.31820681  0.79221685  0.32193737    -0.74000
O632        O  0.28828761  0.82005106  0.29173551    -0.52900
C633        C  0.31050698  0.81390083  0.31468638     0.79800
O634        O  0.31400466  0.71207513  0.17313322    -0.58600
O635        O  0.28732271  0.68413774  0.20758336    -0.51600
C636        C  0.30773567  0.69039561  0.18225026     0.71800
O637        O  0.31733488  0.79225120  0.17696299    -0.73100
O638        O  0.28859008  0.82021766  0.20895081    -0.53700
C639        C  0.31051180  0.81393558  0.18557151     0.77800
O640        O  0.31978391  0.71228143  0.32019211    -0.58300
O641        O  0.28900692  0.68430971  0.29103140    -0.51400
C642        C  0.31214389  0.69061168  0.31263069     0.74400
Zr643      Zr  0.30079007  0.75212756  0.30570263     2.54700
O644        O  0.35799376  0.75270643  0.30860138    -0.78800
O645        O  0.29665856  0.75062815  0.37533252    -0.92200
Zr646      Zr  0.29849843  0.75225616  0.19158510     2.64700
O647        O  0.35572855  0.75112787  0.18824122    -0.97200
O648        O  0.29428086  0.75355720  0.12194106    -0.79300
O649        O  0.30046527  0.77514103  0.24870789    -0.82600
O650        O  0.30030178  0.72933975  0.24846237    -2.17300
O651        O  0.19115591  0.71182852  0.32593708    -0.66000
O652        O  0.21751615  0.68398087  0.29071649    -0.50600
C653        C  0.19687591  0.69020550  0.31580910     0.72800
O654        O  0.18480092  0.79220728  0.18372101    -0.58900
O655        O  0.21725612  0.82015740  0.20993525    -0.50900
C656        C  0.19308700  0.81388982  0.19013364     0.74600
O657        O  0.18698016  0.71254852  0.17932267    -0.70300
O658        O  0.21614433  0.68459112  0.21022339    -0.49000
C659        C  0.19355940  0.69083753  0.18780003     0.76000
O660        O  0.18938318  0.79191817  0.32380104    -0.65600
O661        O  0.21759633  0.81986302  0.29124801    -0.52800
C662        C  0.19590018  0.81359737  0.31494276     0.74300
Zr663      Zr  0.20809356  0.75203194  0.30892401     2.77500
O664        O  0.15089409  0.75211252  0.31301487    -0.96400
O665        O  0.21415925  0.75301799  0.37837025    -0.77200
Zr666      Zr  0.20566241  0.75238920  0.19475686     2.70100
O667        O  0.14854096  0.75063019  0.19126676    -0.78500
O668        O  0.21094651  0.75441576  0.12524454    -0.97500
Zr669      Zr  0.25330233  0.79791614  0.25017729     2.21500
Zr670      Zr  0.25310716  0.70639855  0.25007044     2.11100
O671        O  0.20621376  0.72948801  0.25171700    -2.46200
O672        O  0.20631291  0.77505047  0.25200942    -0.78200
O673        O  0.25448082  0.72859216  0.30840771    -0.70400
O674        O  0.25209578  0.77567276  0.19187941    -2.31400
O675        O  0.25444076  0.77547573  0.30829182    -2.28000
O676        O  0.25193533  0.72885107  0.19200295    -0.72200
H677        H  0.31865832  0.71923028  0.24766170     0.79800
H678        H  0.25161764  0.78605011  0.16981042     0.80900
H679        H  0.18772940  0.71949814  0.25230867     0.83100
H680        H  0.25475822  0.78581217  0.33045416     0.80700
H681        H  0.28113812  0.73960477  0.11525763     0.43800
H682        H  0.20027812  0.73992582  0.11563297     0.42700
H683        H  0.14181998  0.74665133  0.21771163     0.42400
H684        H  0.14392279  0.74050298  0.29338199     0.40300
H685        H  0.19237377  0.75259813  0.38839860     0.43500
H686        H  0.28903867  0.76659991  0.38290135     0.38200
H687        H  0.36464833  0.75555324  0.28175935     0.44400
H688        H  0.36201997  0.73807794  0.20568667     0.40800
H689        H  0.14595817  0.74444215  0.33786637     0.45700
H690        H  0.31872553  0.75015796  0.38435143     0.44400
H691        H  0.36050293  0.74507479  0.16218115     0.44600
H692        H  0.19701929  0.76764923  0.11739289     0.44900
C693        C  0.10043104  0.59890580  0.14575881     0.14000
C694        C  0.11312033  0.61747092  0.12355997     0.01000
C695        C  0.10664894  0.61828636  0.08404440     0.15900
C696        C  0.08783509  0.60088860  0.06692056     0.25400
C697        C  0.07541500  0.58214051  0.08891041    -0.41000
C698        C  0.08195656  0.58122643  0.12849045     0.32400
C699        C  0.13324563  0.63602892  0.14119986     0.01000
F700        F  0.11931891  0.63564364  0.06178384    -0.13300
F701        F  0.07003323  0.56345309  0.15051689    -0.13800
C702        C  0.16155330  0.62993471  0.15943939     0.16000
C703        C  0.18129762  0.64763358  0.17428683     0.25400
C704        C  0.17304194  0.67189493  0.17131803    -0.40900
C705        C  0.14429449  0.67781653  0.15331620     0.32300
C706        C  0.12479046  0.66008195  0.13836733     0.14000
F707        F  0.17056514  0.60681948  0.16190043    -0.13300
F708        F  0.13455553  0.70075386  0.15049327    -0.13800
F709        F  0.20868796  0.64089700  0.19106192    -0.16100
F710        F  0.09734553  0.66642439  0.12129111    -0.14600
F711        F  0.10554226  0.59812145  0.18420898    -0.14600
F712        F  0.08290577  0.60180064  0.02844024    -0.16100
C713        C  0.14703538  0.63479713  0.32886162     0.14000
C714        C  0.13872846  0.63657651  0.36777871     0.01000
C715        C  0.14987481  0.65579332  0.38960539     0.15900
C716        C  0.16911293  0.67307254  0.37279053     0.25400
C717        C  0.17765485  0.67133732  0.33385218    -0.41000
C718        C  0.16639250  0.65202769  0.31197734     0.32400
C719        C  0.11916849  0.61801185  0.38595583     0.01000
F720        F  0.14256395  0.65754605  0.42743876    -0.13300
F721        F  0.17318838  0.65027750  0.27398443    -0.13800
C722        C  0.13164374  0.59526503  0.39214038     0.16000
C723        C  0.11343584  0.57760004  0.40955944     0.25400
C724        C  0.08211890  0.58230920  0.42066964    -0.40900
C725        C  0.06984655  0.60531126  0.41481327     0.32300
C726        C  0.08830435  0.62302226  0.39775978     0.14000
F727        F  0.16178886  0.59034476  0.38199555    -0.13300
F728        F  0.03977547  0.61057158  0.42482135    -0.13800
F729        F  0.12683518  0.55610076  0.41647244    -0.16100
F730        F  0.07591021  0.64500653  0.39225455    -0.14600
F731        F  0.13591568  0.61656553  0.30712692    -0.14600
F732        F  0.17995972  0.69125957  0.39480172    -0.16100
C733        C  0.12141842  0.84717854  0.15442268     0.14000
C734        C  0.13499794  0.86784305  0.13911124     0.01000
C735        C  0.16770599  0.87105346  0.14134922     0.15900
C736        C  0.18666900  0.85367120  0.15839153     0.25400
C737        C  0.17315604  0.83280424  0.17345840    -0.41000
C738        C  0.14028132  0.82987443  0.17171727     0.32400
C739        C  0.11500981  0.88605052  0.12073404     0.01000
F740        F  0.18131006  0.89077475  0.12614457    -0.13300
F741        F  0.12631413  0.81050750  0.18761446    -0.13800
C742        C  0.11000434  0.90802061  0.13881437     0.16000
C743        C  0.09148510  0.92543168  0.12122626     0.25400
C744        C  0.07787198  0.92126746  0.08489278    -0.40900
C745        C  0.08270079  0.89900860  0.06708278     0.32300
C746        C  0.10093653  0.88152362  0.08504168     0.14000
F747        F  0.12275414  0.91246757  0.17382537    -0.13300
F748        F  0.07067597  0.89438627  0.03175321    -0.13800
F749        F  0.08646108  0.94622424  0.14014179    -0.16100
F750        F  0.10544416  0.86028881  0.06724848    -0.14600
F751        F  0.08980411  0.84390406  0.15291512    -0.14600
F752        F  0.21829326  0.85689843  0.15904354    -0.16100
C753        C  0.35724592  0.65812695  0.10801096     0.14000
C754        C  0.36366978  0.63660513  0.12682279     0.01000
C755        C  0.35086419  0.63248940  0.16337936     0.15900
C756        C  0.33207360  0.64968497  0.18108540     0.25400
C757        C  0.32597874  0.67149782  0.16262151    -0.41000
C758        C  0.33879924  0.67550477  0.12583420     0.32400
C759        C  0.38392504  0.61840973  0.10869202     0.01000
F760        F  0.35736664  0.61201106  0.18243538    -0.13300
F761        F  0.33331491  0.69618984  0.10687898    -0.13800
C762        C  0.41532131  0.62361564  0.09926078     0.16000
C763        C  0.43479249  0.60600687  0.08366946     0.25400
C764        C  0.42326179  0.58276501  0.07782797    -0.40900
C765        C  0.39163709  0.57775754  0.08701607     0.32300
C766        C  0.37220211  0.59542950  0.10213556     0.14000
F767        F  0.42742101  0.64554359  0.10641727    -0.13300
F768        F  0.37918852  0.55584603  0.08067498    -0.13800
F769        F  0.46514359  0.61154462  0.07542584    -0.16100
F770        F  0.34175110  0.59012638  0.11025297    -0.14600
F771        F  0.36855062  0.66220595  0.07215426    -0.14600
F772        F  0.32098966  0.64531115  0.21695437    -0.16100
C773        C  0.34683316  0.87414599  0.33718820     0.14000
C774        C  0.36532492  0.86879038  0.36939003     0.01000
C775        C  0.36512572  0.84560365  0.38420896     0.15900
C776        C  0.34708801  0.82786713  0.36678539     0.25400
C777        C  0.32872889  0.83300398  0.33406658    -0.41000
C778        C  0.32863263  0.85648181  0.31970323     0.32400
C779        C  0.38540477  0.88724273  0.38705390     0.01000
F780        F  0.38235247  0.84015744  0.41581194    -0.13300
F781        F  0.31176677  0.86230437  0.28799473    -0.13800
C782        C  0.37205115  0.90825402  0.40153106     0.16000
C783        C  0.39116862  0.92581339  0.41770113     0.25400
C784        C  0.42393198  0.92246389  0.42015188    -0.40900
C785        C  0.43720911  0.90131664  0.40601563     0.32300
C786        C  0.41810804  0.88392823  0.38930933     0.14000
F787        F  0.34042782  0.91157994  0.40055848    -0.13300
F788        F  0.46878030  0.89784325  0.40715001    -0.13800
F789        F  0.37754504  0.94586362  0.43177224    -0.16100
F790        F  0.43160981  0.86406853  0.37443310    -0.14600
F791        F  0.34722276  0.89635497  0.32187500    -0.14600
F792        F  0.34755643  0.80570918  0.38227720    -0.16100
C793        C  0.38417896  0.65767487  0.34768983     0.14000
C794        C  0.37108451  0.63637639  0.36127064     0.01000
C795        C  0.33846568  0.63271052  0.35836925     0.15900
C796        C  0.31910775  0.65032367  0.34260063     0.25400
C797        C  0.33218389  0.67178508  0.32927573    -0.41000
C798        C  0.36495240  0.67520027  0.33172522     0.32400
C799        C  0.39153833  0.61808821  0.37869391     0.01000
F800        F  0.32534382  0.61225158  0.37152565    -0.13300
F801        F  0.37852151  0.69526432  0.31765422    -0.13800
C802        C  0.40728725  0.62278724  0.41327331     0.16000
C803        C  0.42642880  0.60545576  0.43007694     0.25400
C804        C  0.43009804  0.58296684  0.41258923    -0.40900
C805        C  0.41457660  0.57854314  0.37743684     0.32300
C806        C  0.39550649  0.59595751  0.36074628     0.14000
F807        F  0.40337262  0.64399665  0.43135580    -0.13300
F808        F  0.41792641  0.55741750  0.35893325    -0.13800
F809        F  0.44038618  0.61047835  0.46418455    -0.16100
F810        F  0.38106769  0.59130695  0.32679378    -0.14600
F811        F  0.41573437  0.66128497  0.34926934    -0.14600
F812        F  0.28754601  0.64670258  0.34141329    -0.16100
C813        C  0.08717707  0.88219705  0.39292641     0.14000
C814        C  0.11903636  0.88669839  0.38498821     0.01000
C815        C  0.13185862  0.90898105  0.39426896     0.15900
C816        C  0.11299619  0.92671505  0.41040780     0.25400
C817        C  0.08110040  0.92221840  0.41891215    -0.41000
C818        C  0.06851063  0.89961900  0.41042084     0.32400
C819        C  0.13897809  0.86812787  0.36722431     0.01000
F820        F  0.16291365  0.91337899  0.38849276    -0.13300
F821        F  0.03797041  0.89450748  0.41823908    -0.13800
C822        C  0.15400448  0.87234282  0.33195855     0.16000
C823        C  0.17285456  0.85480148  0.31516615     0.25400
C824        C  0.17675696  0.83255148  0.33320357    -0.40900
C825        C  0.16148747  0.82840047  0.36853967     0.32300
C826        C  0.14307174  0.84610975  0.38549594     0.14000
F827        F  0.14979483  0.89329891  0.31330405    -0.13300
F828        F  0.16466432  0.80730715  0.38711098    -0.13800
F829        F  0.18640843  0.85938598  0.28064827    -0.16100
F830        F  0.12962148  0.84190153  0.42019362    -0.14600
F831        F  0.07400793  0.86103782  0.38304862    -0.14600
F832        F  0.12629140  0.94807959  0.41873505    -0.16100
C833        C  0.33393206  0.87224526  0.13864742     0.14000
C834        C  0.36599068  0.86833957  0.13132688     0.01000
C835        C  0.37983448  0.84679743  0.14242977     0.15900
C836        C  0.36178416  0.82914473  0.16007832     0.25400
C837        C  0.32954593  0.83285582  0.16728795    -0.41000
C838        C  0.31585568  0.85469221  0.15669533     0.32400
C839        C  0.38539344  0.88696580  0.11317851     0.01000
F840        F  0.41109658  0.84315231  0.13704480    -0.13300
F841        F  0.28484787  0.85884657  0.16297701    -0.13800
C842        C  0.39141018  0.90826924  0.13282200     0.16000
C843        C  0.41072346  0.92561714  0.11648101     0.25400
C844        C  0.42406689  0.92205551  0.07989530    -0.40900
C845        C  0.41789322  0.90065957  0.06017858     0.32300
C846        C  0.39883285  0.88319999  0.07684457     0.14000
F847        F  0.37915132  0.91200032  0.16831400    -0.13300
F848        F  0.42957261  0.89688914  0.02439083    -0.13800
F849        F  0.41701021  0.94564904  0.13693428    -0.16100
F850        F  0.39311236  0.86272166  0.05733056    -0.14600
F851        F  0.32011031  0.89296462  0.12788662    -0.14600
F852        F  0.37610725  0.80870422  0.17120784    -0.16100
O853        O  0.43683759  0.96265277  0.57119953    -0.74000
O854        O  0.46572510  0.93472577  0.53927930    -0.52900
C855        C  0.44355526  0.94098793  0.56239313     0.79800
O856        O  0.44176781  0.54207121  0.92290331    -0.58600
O857        O  0.46901329  0.56989123  0.95696659    -0.51600
C858        C  0.44831991  0.56374177  0.93189951     0.71800
O859        O  0.43659561  0.96261910  0.92928924    -0.73100
O860        O  0.46715263  0.93459828  0.95838584    -0.53700
C861        C  0.44404544  0.94097704  0.93690724     0.77800
O862        O  0.43714185  0.54211044  0.57080288    -0.58300
O863        O  0.46649792  0.57001478  0.53964893    -0.51400
C864        C  0.44395049  0.56376914  0.56214655     0.74400
Zr865      Zr  0.45553196  0.00256152  0.55628049     2.54700
O866        O  0.39831682  0.00281663  0.55798297    -0.78800
O867        O  0.45909951  0.50102467  0.62526343    -0.92200
Zr868      Zr  0.45646037  0.00223963  0.94261724     2.64700
O869        O  0.39920939  0.00216564  0.93945299    -0.97200
O870        O  0.46286166  0.49895520  0.87191514    -0.79300
O871        O  0.45592661  0.97959928  0.49924277    -0.82600
O872        O  0.45570128  0.52484074  0.49841932    -2.17300
O873        O  0.06357845  0.54130547  0.57970798    -0.66000
O874        O  0.03751079  0.56921128  0.54435985    -0.50600
C875        C  0.05753651  0.56291677  0.57010852     0.72800
O876        O  0.06848328  0.96217134  0.92874676    -0.58900
O877        O  0.03903867  0.93410964  0.95942132    -0.50900
C878        C  0.06142230  0.94047374  0.93675104     0.74600
O879        O  0.06950262  0.54193031  0.92996809    -0.70300
O880        O  0.03987317  0.56968101  0.96103700    -0.49000
C881        C  0.06243135  0.56357416  0.93845218     0.76000
O882        O  0.06582279  0.96171043  0.57393819    -0.65600
O883        O  0.03775876  0.93383879  0.54096515    -0.52800
C884        C  0.05926291  0.93998813  0.56505225     0.74300
Zr885      Zr  0.04790078  0.50156939  0.55933173     2.77500
O886        O  0.10508013  0.50174315  0.56380712    -0.96400
O887        O  0.04258007  0.49856943  0.62872596    -0.77200
Zr888      Zr  0.05061384  0.50207458  0.94494684     2.70100
O889        O  0.10781937  0.50043336  0.94567562    -0.78500
O890        O  0.04915676  0.50338948  0.87509298    -0.97500
Zr891      Zr  0.00295048  0.95626382  0.99990049     2.21500
Zr892      Zr  0.50297415  0.54764802  0.50014935     2.11100
O893        O  0.05006200  0.52463406  0.00239820    -2.46200
O894        O  0.04998188  0.97917050  0.00087015    -0.78200
O895        O  0.50168680  0.52526942  0.55827473    -0.70400
O896        O  0.00350901  0.97854117  0.94163680    -2.31400
O897        O  0.00173405  0.97875687  0.55833523    -2.27600
O898        O  0.50367226  0.52543207  0.94166632    -0.72200
H899        H  0.43725415  0.53488390  0.99761545     0.79800
H900        H  0.00375548  0.96817719  0.91950149     0.80900
H901        H  0.06872121  0.53462094  0.50341972     0.83100
H902        H  0.00130552  0.96832707  0.58035431     0.80700
H903        H  0.46538256  0.01719601  0.86515409     0.43800
H904        H  0.03406993  0.49078173  0.86764375     0.42700
H905        H  0.11426339  0.00798652  0.96366849     0.42400
H906        H  0.11189181  0.51563931  0.54846432     0.40300
H907        H  0.02732672  0.51116952  0.63560744     0.43500
H908        H  0.43824897  0.00728053  0.63490418     0.38200
H909        H  0.39200731  0.00648976  0.53128899     0.44400
H910        H  0.39350773  0.51625672  0.95332895     0.40800
H911        H  0.10957361  0.50625242  0.59073808     0.45700
H912        H  0.47318800  0.01595850  0.63217949     0.44400
H913        H  0.39420851  0.00759581  0.91313519     0.44600
H914        H  0.03819588  0.51845385  0.86899851     0.44900
O915        O  0.31922975  0.79136692  0.82183376    -0.74000
O916        O  0.28918606  0.81926789  0.79196717    -0.52900
C917        C  0.31153053  0.81305648  0.81470797     0.79800
O918        O  0.31393374  0.71188547  0.67229411    -0.58600
O919        O  0.28660645  0.68408659  0.70630873    -0.51600
C920        C  0.30711107  0.69025229  0.68098987     0.71800
O921        O  0.31748786  0.79146855  0.67584747    -0.73100
O922        O  0.28919283  0.81952442  0.70828052    -0.53700
C923        C  0.31083259  0.81314151  0.68454550     0.77800
O924        O  0.31928518  0.71151098  0.82048978    -0.58300
O925        O  0.28906114  0.68360207  0.79032687    -0.51400
C926        C  0.31188630  0.68986987  0.81238875     0.74400
Zr927      Zr  0.30089833  0.75152136  0.80594773     2.54700
O928        O  0.35808163  0.75137466  0.80929862    -0.78800
O929        O  0.29676365  0.75058161  0.87562784    -0.92200
Zr930      Zr  0.29876213  0.75179913  0.69188698     2.64700
O931        O  0.35603968  0.75167312  0.69167568    -0.97200
O932        O  0.29481182  0.75273708  0.62220002    -0.79300
O933        O  0.30071332  0.77460776  0.74900722    -0.82600
O934        O  0.30045192  0.72876833  0.74866437    -2.17300
O935        O  0.19153687  0.71203344  0.82692861    -0.66000
O936        O  0.21742241  0.68406832  0.79137821    -0.50600
C937        C  0.19709008  0.69039196  0.81680460     0.72800
O938        O  0.18565071  0.79185506  0.68312510    -0.58900
O939        O  0.21752407  0.81988973  0.71018793    -0.50900
C940        C  0.19363882  0.81355658  0.68988412     0.74600
O941        O  0.18842083  0.71194919  0.67810264    -0.70300
O942        O  0.21667230  0.68407996  0.71044558    -0.49000
C943        C  0.19476659  0.69024751  0.68708070     0.76000
O944        O  0.18986677  0.79201254  0.82333399    -0.65600
O945        O  0.21806737  0.81991370  0.79072417    -0.52800
C946        C  0.19626137  0.81368103  0.81429543     0.74300
Zr947      Zr  0.20825332  0.75200683  0.80874751     2.77500
O948        O  0.15097888  0.75252096  0.81036564    -0.96400
O949        O  0.21327966  0.75371668  0.87829566    -0.77200
Zr950      Zr  0.20601691  0.75200419  0.69468141     2.70100
O951        O  0.14884333  0.75031381  0.69327259    -0.78500
O952        O  0.21033339  0.75470688  0.62515022    -0.97500
Zr953      Zr  0.25383091  0.79763354  0.75015867     2.21500
Zr954      Zr  0.25313637  0.70606843  0.75019944     2.11100
O955        O  0.20631756  0.72921886  0.75171024    -2.46200
O956        O  0.20685938  0.77482168  0.75174555    -0.78200
O957        O  0.25440535  0.72826054  0.80853706    -0.70400
O958        O  0.25248944  0.77527502  0.69203643    -2.31400
O959        O  0.25477918  0.77519336  0.80829193    -2.28000
O960        O  0.25218897  0.72847701  0.69219972    -0.72200
H961        H  0.31871729  0.71856731  0.74778675     0.79800
H962        H  0.25207041  0.78560701  0.66990820     0.80900
H963        H  0.18781490  0.71924164  0.75224108     0.83100
H964        H  0.25512801  0.78555464  0.83042773     0.80700
H965        H  0.28086158  0.73920242  0.61570449     0.43800
H966        H  0.21131805  0.73798991  0.61624478     0.42700
H967        H  0.14249024  0.75217262  0.72046142     0.42400
H968        H  0.14435885  0.73769966  0.79726028     0.40300
H969        H  0.19136830  0.75468225  0.88779365     0.43500
H970        H  0.28744901  0.76611756  0.88271037     0.38200
H971        H  0.36495898  0.74895287  0.78243025     0.44400
H972        H  0.36204278  0.73872240  0.70945481     0.40800
H973        H  0.14549349  0.74997908  0.83766900     0.45700
H974        H  0.31878958  0.75157859  0.88469467     0.44400
H975        H  0.36188088  0.74567851  0.66591761     0.44600
H976        H  0.18943961  0.76040240  0.61666288     0.44900
C977        C  0.10297237  0.59787965  0.64487510     0.14000
C978        C  0.11543065  0.61643189  0.62245380     0.01000
C979        C  0.10801444  0.61751116  0.58318639     0.15900
C980        C  0.08814027  0.60061022  0.56667666     0.25400
C981        C  0.07614589  0.58178999  0.58881275    -0.41000
C982        C  0.08388966  0.58044296  0.62803145     0.32400
C983        C  0.13560603  0.63504813  0.63978811     0.01000
F984        F  0.12064291  0.63470127  0.56055207    -0.13300
F985        F  0.07254659  0.56249369  0.65014748    -0.13800
C986        C  0.16341141  0.62907152  0.65926171     0.16000
C987        C  0.18282141  0.64689819  0.67433911     0.25400
C988        C  0.17479322  0.67115919  0.67016851    -0.40900
C989        C  0.14661220  0.67693567  0.65087994     0.32300
C990        C  0.12735543  0.65908911  0.63594814     0.14000
F991        F  0.17217387  0.60595987  0.66298394    -0.13300
F992        F  0.13705198  0.69985114  0.64700680    -0.13800
F993        F  0.20954217  0.64026304  0.69276629    -0.16100
F994        F  0.10018964  0.66532503  0.61812897    -0.14600
F995        F  0.10878062  0.59691913  0.68316726    -0.14600
F996        F  0.08172368  0.60208351  0.52857053    -0.16100
C997        C  0.14742527  0.63505704  0.83079884     0.14000
C998        C  0.13883747  0.63719231  0.86957459     0.01000
C999        C  0.14993050  0.65654700  0.89112510     0.15900
C1000       C  0.16934048  0.67363978  0.87410889     0.25400
C1001       C  0.17796906  0.67162234  0.83521851    -0.41000
C1002       C  0.16682281  0.65213887  0.81368604     0.32400
C1003       C  0.11929949  0.61867778  0.88786154     0.01000
F1004       F  0.14252558  0.65856176  0.92890068    -0.13300
F1005       F  0.17381928  0.65003283  0.77579467    -0.13800
C1006       C  0.13146736  0.59572840  0.89280339     0.16000
C1007       C  0.11313423  0.57789956  0.90949121     0.25400
C1008       C  0.08201551  0.58267769  0.92132240    -0.40900
C1009       C  0.07007952  0.60591869  0.91686056     0.32300
C1010       C  0.08864507  0.62376905  0.90037338     0.14000
F1011       F  0.16144425  0.59073189  0.88202932    -0.13300
F1012       F  0.04022823  0.61130340  0.92766035    -0.13800
F1013       F  0.12623812  0.55613194  0.91487911    -0.16100
F1014       F  0.07650796  0.64593518  0.89597871    -0.14600
F1015       F  0.13661415  0.61655360  0.80943070    -0.14600
F1016       F  0.18031625  0.69188805  0.89589595    -0.16100
C1017       C  0.12226276  0.84607509  0.65126480     0.14000
C1018       C  0.13571654  0.86720935  0.63738714     0.01000
C1019       C  0.16821891  0.87090725  0.64161149     0.15900
C1020       C  0.18706026  0.85366256  0.65920287     0.25400
C1021       C  0.17370171  0.83237227  0.67282882    -0.41000
C1022       C  0.14103942  0.82883869  0.66892835     0.32400
C1023       C  0.11581788  0.88556411  0.61896002     0.01000
F1024       F  0.18181770  0.89101128  0.62778358    -0.13300
F1025       F  0.12715420  0.80886614  0.68289447    -0.13800
C1026       C  0.11212278  0.90791008  0.63631967     0.16000
C1027       C  0.09341713  0.92536501  0.61914555     0.25400
C1028       C  0.07814468  0.92093322  0.58386620    -0.40900
C1029       C  0.08207502  0.89842734  0.56642701     0.32300
C1030       C  0.10066824  0.88092333  0.58392742     0.14000
F1031       F  0.12646859  0.91275817  0.67025529    -0.13300
F1032       F  0.06886532  0.89355898  0.53181987    -0.13800
F1033       F  0.09001972  0.94654374  0.63746200    -0.16100
F1034       F  0.10466933  0.85962895  0.56612639    -0.14600
F1035       F  0.09082491  0.84228645  0.64818483    -0.14600
F1036       F  0.21851519  0.85742814  0.66162879    -0.16100
C1037       C  0.35776275  0.65817364  0.60768013     0.14000
C1038       C  0.36352472  0.63650430  0.62638005     0.01000
C1039       C  0.34972119  0.63221657  0.66234516     0.15900
C1040       C  0.33045300  0.64930431  0.67946694     0.25400
C1041       C  0.32507143  0.67127598  0.66121220    -0.41000
C1042       C  0.33885860  0.67547148  0.62498175     0.32400
C1043       C  0.38398648  0.61828144  0.60868487     0.01000
F1044       F  0.35583204  0.61172687  0.68155760    -0.13300
F1045       F  0.33400458  0.69628642  0.60613219    -0.13800
C1046       C  0.41541487  0.62350861  0.59943169     0.16000
C1047       C  0.43499616  0.60589434  0.58410413     0.25400
C1048       C  0.42356954  0.58262199  0.57839544    -0.40900
C1049       C  0.39194804  0.57755195  0.58757370     0.32300
C1050       C  0.37235124  0.59526491  0.60220458     0.14000
F1051       F  0.42740143  0.64550395  0.60630467    -0.13300
F1052       F  0.37962802  0.55555253  0.58163688    -0.13800
F1053       F  0.46533847  0.61147575  0.57590864    -0.16100
F1054       F  0.34177972  0.58999749  0.60971600    -0.14600
F1055       F  0.37031367  0.66253160  0.57252792    -0.14600
F1056       F  0.31827262  0.64468507  0.71471896    -0.16100
C1057       C  0.34663233  0.87354751  0.83803846     0.14000
C1058       C  0.36568984  0.86819839  0.86976500     0.01000
C1059       C  0.36630903  0.84485167  0.88397777     0.15900
C1060       C  0.34869375  0.82697156  0.86629840     0.25400
C1061       C  0.32976876  0.83214563  0.83407604    -0.41000
C1062       C  0.32879123  0.85576042  0.82039798     0.32400
C1063       C  0.38566473  0.88677882  0.88735044     0.01000
F1064       F  0.38389771  0.83937733  0.91527418    -0.13300
F1065       F  0.31132066  0.86165321  0.78921708    -0.13800
C1066       C  0.37233815  0.90807173  0.90081353     0.16000
C1067       C  0.39141031  0.92573900  0.91673282     0.25400
C1068       C  0.42409254  0.92223562  0.92004428    -0.40900
C1069       C  0.43732034  0.90077635  0.90711453     0.32300
C1070       C  0.41830427  0.88331192  0.89050790     0.14000
F1071       F  0.34076411  0.91157238  0.89921926    -0.13300
F1072       F  0.46877506  0.89697558  0.90950668    -0.13800
F1073       F  0.37776495  0.94600494  0.92993566    -0.16100
F1074       F  0.43187097  0.86318935  0.87667121    -0.14600
F1075       F  0.34606159  0.89589875  0.82329016    -0.14600
F1076       F  0.35010320  0.80465751  0.88111167    -0.16100
C1077       C  0.38381822  0.65702018  0.84740010     0.14000
C1078       C  0.37063566  0.63592685  0.86164125     0.01000
C1079       C  0.33799174  0.63231393  0.85907092     0.15900
C1080       C  0.31868155  0.64980532  0.84293400     0.25400
C1081       C  0.33185688  0.67106587  0.82898905    -0.41000
C1082       C  0.36463849  0.67439749  0.83101911     0.32400
C1083       C  0.39107195  0.61771463  0.87911938     0.01000
F1084       F  0.32481779  0.61204911  0.87292069    -0.13300
F1085       F  0.37823008  0.69422693  0.81614045    -0.13800
C1086       C  0.40734768  0.62265658  0.91323435     0.16000
C1087       C  0.42649016  0.60535381  0.93005644     0.25400
C1088       C  0.42988077  0.58276953  0.91277719    -0.40900
C1089       C  0.41387450  0.57813737  0.87805456     0.32300
C1090       C  0.39456839  0.59542816  0.86156489     0.14000
F1091       F  0.40396746  0.64407889  0.93082724    -0.13300
F1092       F  0.41692500  0.55690154  0.85980620    -0.13800
F1093       F  0.44068281  0.61049720  0.96398004    -0.16100
F1094       F  0.37944594  0.59049976  0.82816623    -0.14600
F1095       F  0.41539335  0.66056983  0.84877965    -0.14600
F1096       F  0.28709331  0.64629051  0.84199669    -0.16100
C1097       C  0.08591269  0.88210077  0.89076043     0.14000
C1098       C  0.11779401  0.88646012  0.88261574     0.01000
C1099       C  0.13102202  0.90849164  0.89259307     0.15900
C1100       C  0.11264893  0.92603643  0.90996679     0.25400
C1101       C  0.08074631  0.92169618  0.91851584    -0.41000
C1102       C  0.06765355  0.89942960  0.90907963     0.32400
C1103       C  0.13760937  0.86785072  0.86477967     0.01000
F1104       F  0.16204492  0.91279429  0.88639755    -0.13300
F1105       F  0.03701365  0.89459431  0.91676509    -0.13800
C1106       C  0.15388331  0.87238233  0.83044068     0.16000
C1107       C  0.17333375  0.85498964  0.81426458     0.25400
C1108       C  0.17665506  0.83258730  0.83202748    -0.40900
C1109       C  0.16009784  0.82814388  0.86641328     0.32300
C1110       C  0.14102159  0.84566733  0.88269866     0.14000
F1111       F  0.15053309  0.89357836  0.81222228    -0.13300
F1112       F  0.16267250  0.80694996  0.88481720    -0.13800
F1113       F  0.18816322  0.85993051  0.78066998    -0.16100
F1114       F  0.12643702  0.84116326  0.91661192    -0.14600
F1115       F  0.07233998  0.86117661  0.88040449    -0.14600
F1116       F  0.12642733  0.94703666  0.91947067    -0.16100
C1117       C  0.33382517  0.87090978  0.63596300     0.14000
C1118       C  0.36625734  0.86760610  0.63054144     0.01000
C1119       C  0.38037400  0.84638926  0.64283942     0.15900
C1120       C  0.36230433  0.82864269  0.66028645     0.25400
C1121       C  0.32980082  0.83194110  0.66600481    -0.41000
C1122       C  0.31574383  0.85325617  0.65373359     0.32400
C1123       C  0.38560393  0.88646151  0.61279095     0.01000
F1124       F  0.41183677  0.84313080  0.63872329    -0.13300
F1125       F  0.28437333  0.85673102  0.65805259    -0.13800
C1126       C  0.39087423  0.90790681  0.63238605     0.16000
C1127       C  0.40998695  0.92551775  0.61625673     0.25400
C1128       C  0.42400593  0.92203544  0.57997124    -0.40900
C1129       C  0.41833374  0.90054643  0.56024139     0.32300
C1130       C  0.39939815  0.88289165  0.57663686     0.14000
F1131       F  0.37793225  0.91158289  0.66753787    -0.13300
F1132       F  0.43029480  0.89688350  0.52457486    -0.13800
F1133       F  0.41527182  0.94576554  0.63657516    -0.16100
F1134       F  0.39401537  0.86243561  0.55692763    -0.14600
F1135       F  0.31963897  0.89111096  0.62353179    -0.14600
F1136       F  0.37678251  0.80853841  0.67267594    -0.16100
O1137       O  0.93501110  0.46211998  0.06826532    -0.74000
O1138       O  0.96496065  0.43414540  0.03816456    -0.52900
C1139       C  0.94191208  0.44043137  0.05989166     0.79800
O1140       O  0.94098604  0.04279122  0.42481286    -0.58600
O1141       O  0.96746150  0.07064829  0.45947793    -0.51600
C1142       C  0.94685430  0.06448059  0.43426694     0.71800
O1143       O  0.93782344  0.46237541  0.42797951    -0.73100
O1144       O  0.96695396  0.43426843  0.45896687    -0.53700
C1145       C  0.94460510  0.44068823  0.43641480     0.77800
O1146       O  0.93812786  0.04229070  0.07223820    -0.58300
O1147       O  0.96660399  0.07014017  0.03976063    -0.51400
C1148       C  0.94467430  0.06394981  0.06317520     0.74400
Zr1149     Zr  0.95515828  0.50193236  0.05580108     2.54700
O1150       O  0.89798075  0.50302245  0.05808756    -0.78800
O1151       O  0.96016771  0.00118694  0.12576797    -0.92200
Zr1152     Zr  0.95759167  0.50214116  0.44208314     2.64700
O1153       O  0.90048039  0.50259387  0.43620932    -0.97200
O1154       O  0.96371786  0.00120947  0.37304107    -0.79300
O1155       O  0.95596916  0.47921826  0.99855372    -0.82600
O1156       O  0.95545969  0.02482077  0.99888372    -2.17300
O1157       O  0.56236406  0.04257869  0.07834730    -0.66000
O1158       O  0.53622223  0.07010498  0.04225683    -0.50600
C1159       C  0.55602551  0.06412226  0.06835926     0.72800
O1160       O  0.56627316  0.46194882  0.42726415    -0.58900
O1161       O  0.53792418  0.43387922  0.45917924    -0.50900
C1162       C  0.55963751  0.44024304  0.43557654     0.74600
O1163       O  0.56810110  0.04262190  0.42883416    -0.70300
O1164       O  0.53839316  0.07042372  0.45955259    -0.49000
C1165       C  0.56089937  0.06429281  0.43696300     0.76000
O1166       O  0.56606756  0.46186966  0.07297301    -0.65600
O1167       O  0.53757430  0.43394906  0.04071240    -0.52800
C1168       C  0.55935506  0.44019946  0.06427067     0.74300
Zr1169     Zr  0.54835835  0.00229972  0.05795246     2.77500
O1170       O  0.60559609  0.00334034  0.05562521    -0.96400
O1171       O  0.54768222  0.00043962  0.12778186    -0.77200
Zr1172     Zr  0.54938863  0.00262079  0.44336399     2.70100
O1173       O  0.60636846  0.00239599  0.43676940    -0.78500
O1174       O  0.54315208  0.00383257  0.37395014    -0.97500
Zr1175     Zr  0.50220140  0.45614250  0.49985450     2.21500
Zr1176     Zr  0.00254465  0.04771702  0.99962333     2.11100
O1177       O  0.54960773  0.02526503  0.50082811    -2.46200
O1178       O  0.54936610  0.47882419  0.50123083    -0.78200
O1179       O  0.00208378  0.02559072  0.05796693    -0.70400
O1180       O  0.50350774  0.47849148  0.44165909    -2.31400
O1181       O  0.50136825  0.47849477  0.05798501    -2.27600
O1182       O  0.00348778  0.02614303  0.44228280    -0.72200
H1183       H  0.93710135  0.03538377  0.49928900     0.79800
H1184       H  0.50377336  0.46815892  0.41949200     0.80900
H1185       H  0.56775680  0.03544699  0.00144181     0.83100
H1186       H  0.50081749  0.46806892  0.08000333     0.80700
H1187       H  0.94318633  0.49629181  0.36274219     0.43800
H1188       H  0.53649584  0.02034996  0.36832878     0.42700
H1189       H  0.61283790  0.50388210  0.47220855     0.42400
H1190       H  0.61085614  0.01800415  0.04126032     0.40300
H1191       H  0.53083868  0.98890816  0.13405393     0.43500
H1192       H  0.93920547  0.50855169  0.13452079     0.38200
H1193       H  0.89144300  0.50172606  0.03089262     0.44400
H1194       H  0.89337286  0.01755374  0.45300998     0.40800
H1195       H  0.61206582  0.00677182  0.08235593     0.45700
H1196       H  0.97578724  0.51135140  0.13213621     0.44400
H1197       H  0.89642139  0.50624249  0.40885965     0.44600
H1198       H  0.56487492  0.00283922  0.36384392     0.44900
O1199       O  0.81778917  0.29161040  0.32166642    -0.74000
O1200       O  0.78805848  0.31973139  0.29186099    -0.52900
C1201       C  0.81028505  0.31335527  0.31470415     0.79800
O1202       O  0.81315368  0.21254545  0.17165143    -0.58600
O1203       O  0.78647387  0.18460389  0.20615199    -0.51600
C1204       C  0.80704319  0.19087435  0.18088169     0.71800
O1205       O  0.81503495  0.29214026  0.17529035    -0.73100
O1206       O  0.78701758  0.32030175  0.20780037    -0.53700
C1207       C  0.80845749  0.31383295  0.18387318     0.77800
O1208       O  0.81845325  0.21157709  0.31887175    -0.58300
O1209       O  0.78748414  0.18376016  0.28959152    -0.51400
C1210       C  0.81062588  0.18994852  0.31119741     0.74400
Zr1211     Zr  0.80031966  0.25175237  0.30459712     2.54700
O1212       O  0.85755474  0.25237975  0.30359614    -0.78800
O1213       O  0.79896722  0.24987456  0.37439309    -0.92200
Zr1214     Zr  0.79664613  0.25230834  0.19066135     2.64700
O1215       O  0.85387152  0.25280558  0.18707020    -0.97200
O1216       O  0.79061814  0.25304935  0.12120643    -0.79300
O1217       O  0.79933626  0.27500997  0.24787134    -0.82600
O1218       O  0.79906405  0.22917116  0.24726872    -2.17300
O1219       O  0.69101357  0.21264511  0.32754439    -0.66000
O1220       O  0.71681864  0.18472360  0.29190293    -0.50600
C1221       C  0.69651513  0.19106300  0.31736587     0.72800
O1222       O  0.68527103  0.29245714  0.18137237    -0.58900
O1223       O  0.71588621  0.32036529  0.21074153    -0.50900
C1224       C  0.69282651  0.31410455  0.18903033     0.74600
O1225       O  0.68656354  0.21278409  0.17832509    -0.70300
O1226       O  0.71456381  0.18459937  0.21024764    -0.49000
C1227       C  0.69262530  0.19103768  0.18705738     0.76000
O1228       O  0.68911790  0.29218046  0.32449752    -0.65600
O1229       O  0.71699087  0.32002704  0.29116836    -0.52800
C1230       C  0.69555369  0.31377841  0.31516993     0.74300
Zr1231     Zr  0.70783815  0.25239308  0.30952899     2.77500
O1232       O  0.65081825  0.25203871  0.31683649    -0.96400
O1233       O  0.71586064  0.25427426  0.37862497    -0.77200
Zr1234     Zr  0.70381309  0.25257898  0.19570719     2.70100
O1235       O  0.64681242  0.25174812  0.20224111    -0.78500
O1236       O  0.70138243  0.25338563  0.12590710    -0.97500
Zr1237     Zr  0.75249586  0.29805105  0.25014464     2.21500
Zr1238     Zr  0.75184305  0.20641051  0.24945949     2.11100
O1239       O  0.70501745  0.22961206  0.25240687    -2.46200
O1240       O  0.70535647  0.27540562  0.25272134    -0.78200
O1241       O  0.75384915  0.22854773  0.30787419    -0.70400
O1242       O  0.75036396  0.27574409  0.19195666    -2.31400
O1243       O  0.75430956  0.27550955  0.30814016    -2.28000
O1244       O  0.75001850  0.22906519  0.19169431    -0.72200
H1245       H  0.81735903  0.21901722  0.24615210     0.79800
H1246       H  0.74970321  0.28611074  0.16988040     0.80900
H1247       H  0.68650181  0.21964845  0.25320917     0.83100
H1248       H  0.75495708  0.28580112  0.33034734     0.80700
H1249       H  0.81071027  0.25969314  0.11161374     0.43800
H1250       H  0.67929584  0.25762924  0.12006802     0.42700
H1251       H  0.64241464  0.26189874  0.22486665     0.42400
H1252       H  0.64328893  0.23991827  0.29834546     0.40300
H1253       H  0.72693276  0.23929665  0.38495413     0.43500
H1254       H  0.78210862  0.26106207  0.38199866     0.38200
H1255       H  0.86344694  0.24147325  0.28245331     0.44400
H1256       H  0.86086552  0.24207832  0.20789624     0.40800
H1257       H  0.64694801  0.24495112  0.34242049     0.45700
H1258       H  0.81864556  0.25777082  0.38267936     0.44400
H1259       H  0.85911211  0.24421408  0.16308751     0.44600
H1260       H  0.71367459  0.26760792  0.11841554     0.44900
C1261       C  0.59894547  0.10022709  0.14371570     0.14000
C1262       C  0.61135112  0.11885128  0.12140763     0.01000
C1263       C  0.60415541  0.11990377  0.08207245     0.15900
C1264       C  0.58518586  0.10253225  0.06522595     0.25400
C1265       C  0.57373581  0.08341400  0.08719610    -0.41000
C1266       C  0.58060978  0.08245809  0.12663094     0.32400
C1267       C  0.63193784  0.13714849  0.13886345     0.01000
F1268       F  0.61630583  0.13739878  0.05964947    -0.13300
F1269       F  0.56910871  0.06455635  0.14871296    -0.13800
C1270       C  0.65946838  0.13059711  0.15846046     0.16000
C1271       C  0.67937558  0.14797615  0.17387405     0.25400
C1272       C  0.67214213  0.17236177  0.16991405    -0.40900
C1273       C  0.64426239  0.17874619  0.15037998     0.32300
C1274       C  0.62452147  0.16134013  0.13506772     0.14000
F1275       F  0.66751320  0.10732130  0.16190161    -0.13300
F1276       F  0.63549217  0.20184989  0.14652110    -0.13800
F1277       F  0.70582693  0.14079166  0.19232782    -0.16100
F1278       F  0.59775997  0.16817534  0.11690870    -0.14600
F1279       F  0.60425248  0.09943569  0.18212163    -0.14600
F1280       F  0.57915391  0.10387160  0.02700522    -0.16100
C1281       C  0.64727971  0.13558698  0.32963686     0.14000
C1282       C  0.63667985  0.13808440  0.36760775     0.01000
C1283       C  0.64588156  0.15802893  0.38913938     0.15900
C1284       C  0.66587808  0.17507664  0.37312969     0.25400
C1285       C  0.67695282  0.17242432  0.33523760    -0.41000
C1286       C  0.66722132  0.15261303  0.31354532     0.32400
C1287       C  0.61703982  0.11938496  0.38519583     0.01000
F1288       F  0.63597897  0.16073343  0.42595152    -0.13300
F1289       F  0.67597023  0.15019743  0.27625076    -0.13800
C1290       C  0.62879089  0.09618053  0.38847145     0.16000
C1291       C  0.61072521  0.07838017  0.40557259     0.25400
C1292       C  0.58019839  0.08337688  0.41931030    -0.40900
C1293       C  0.56856906  0.10680034  0.41612334     0.32300
C1294       C  0.58690912  0.12463396  0.39931219     0.14000
F1295       F  0.65820156  0.09089183  0.37585827    -0.13300
F1296       F  0.53926826  0.11245690  0.42865499    -0.13800
F1297       F  0.62361763  0.05642564  0.40955803    -0.16100
F1298       F  0.57505387  0.14697891  0.39625194    -0.14600
F1299       F  0.63778214  0.11684406  0.30789857    -0.14600
F1300       F  0.67476598  0.19397739  0.39490931    -0.16100
C1301       C  0.62296848  0.34601709  0.14572808     0.14000
C1302       C  0.63633138  0.36785422  0.13506620     0.01000
C1303       C  0.66818145  0.37228919  0.14307462     0.15900
C1304       C  0.68651113  0.35502100  0.16125906     0.25400
C1305       C  0.67333725  0.33292050  0.17137108    -0.41000
C1306       C  0.64126478  0.32868309  0.16366440     0.32400
C1307       C  0.61672963  0.38625755  0.11665816     0.01000
F1308       F  0.68164890  0.39323021  0.13267133    -0.13300
F1309       F  0.62733315  0.30796633  0.17434432    -0.13800
C1310       C  0.61253897  0.40834007  0.13468099     0.16000
C1311       C  0.59357573  0.42569530  0.11792715     0.25400
C1312       C  0.57846120  0.42132857  0.08257972    -0.40900
C1313       C  0.58280122  0.39911341  0.06448532     0.32300
C1314       C  0.60174286  0.38172823  0.08147265     0.14000
F1315       F  0.62643127  0.41294750  0.16898528    -0.13300
F1316       F  0.56959304  0.39443674  0.02979886    -0.13800
F1317       F  0.58967205  0.44665549  0.13675586    -0.16100
F1318       F  0.60604870  0.36063230  0.06316488    -0.14600
F1319       F  0.59195082  0.34170185  0.13953330    -0.14600
F1320       F  0.71731325  0.35971549  0.16800730    -0.16100
C1321       C  0.85854131  0.15855883  0.10826562     0.14000
C1322       C  0.86526757  0.13734643  0.12783837     0.01000
C1323       C  0.85213069  0.13351208  0.16428832     0.15900
C1324       C  0.83259166  0.15058998  0.18108180     0.25400
C1325       C  0.82596220  0.17203609  0.16182704    -0.41000
C1326       C  0.83926117  0.17583946  0.12516889     0.32400
C1327       C  0.88563922  0.11893651  0.11034638     0.01000
F1328       F  0.85890848  0.11335879  0.18407598    -0.13300
F1329       F  0.83341118  0.19618457  0.10543238    -0.13800
C1330       C  0.91720421  0.12385563  0.10131125     0.16000
C1331       C  0.93654052  0.10605168  0.08595034     0.25400
C1332       C  0.92471253  0.08290643  0.07998217    -0.40900
C1333       C  0.89304901  0.07810959  0.08922771     0.32300
C1334       C  0.87372035  0.09599238  0.10393328     0.14000
F1335       F  0.92953188  0.14571445  0.10841519    -0.13300
F1336       F  0.88041553  0.05622884  0.08315102    -0.13800
F1337       F  0.96701532  0.11130902  0.07790329    -0.16100
F1338       F  0.84310724  0.09097014  0.11158759    -0.14600
F1339       F  0.87024663  0.16236084  0.07251023    -0.14600
F1340       F  0.82124974  0.14647746  0.21689855    -0.16100
C1341       C  0.84712801  0.37327594  0.33821845     0.14000
C1342       C  0.86606869  0.36760956  0.36994581     0.01000
C1343       C  0.86594380  0.34425610  0.38413361     0.15900
C1344       C  0.84777566  0.32669185  0.36639287     0.25400
C1345       C  0.82884338  0.33221832  0.33429760    -0.41000
C1346       C  0.82854976  0.35585058  0.32070767     0.32400
C1347       C  0.88621302  0.38603254  0.38785467     0.01000
F1348       F  0.88317780  0.33848834  0.41557832    -0.13300
F1349       F  0.81105103  0.36209052  0.28972771    -0.13800
C1350       C  0.87292784  0.40737932  0.40116256     0.16000
C1351       C  0.89203263  0.42526458  0.41640291     0.25400
C1352       C  0.92471804  0.42188010  0.41952124    -0.40900
C1353       C  0.93794056  0.40027172  0.40713436     0.32300
C1354       C  0.91887307  0.38257351  0.39110427     0.14000
F1355       F  0.84130891  0.41070076  0.40010694    -0.13300
F1356       F  0.96943246  0.39656315  0.40951735    -0.13800
F1357       F  0.87841796  0.44563272  0.42921089    -0.16100
F1358       F  0.93240401  0.36225768  0.37796464    -0.14600
F1359       F  0.84727815  0.39562483  0.32344888    -0.14600
F1360       F  0.84868772  0.30431332  0.38100576    -0.16100
C1361       C  0.88221086  0.15657213  0.34597948     0.14000
C1362       C  0.86866763  0.13623843  0.36247385     0.01000
C1363       C  0.83587519  0.13309585  0.36077668     0.15900
C1364       C  0.81682521  0.15035901  0.34352318     0.25400
C1365       C  0.83035581  0.17104672  0.32795200    -0.41000
C1366       C  0.86324670  0.17379689  0.32876451     0.32400
C1367       C  0.88891807  0.11811370  0.38072007     0.01000
F1368       F  0.82231193  0.11350470  0.37645967    -0.13300
F1369       F  0.87710819  0.19285689  0.31179294    -0.13800
C1370       C  0.90652563  0.12368549  0.41361347     0.16000
C1371       C  0.92579120  0.10650999  0.43075836     0.25400
C1372       C  0.92782623  0.08334342  0.41518371    -0.40900
C1373       C  0.91017070  0.07803338  0.38185057     0.32300
C1374       C  0.89101737  0.09525178  0.36490148     0.14000
F1375       F  0.90448655  0.14567341  0.42962494    -0.13300
F1376       F  0.91142822  0.05618124  0.36525817    -0.13800
F1377       F  0.94167771  0.11247372  0.46317322    -0.16100
F1378       F  0.87477805  0.08969239  0.33255236    -0.14600
F1379       F  0.91391534  0.15947341  0.34585322    -0.14600
F1380       F  0.78516719  0.14717196  0.34295150    -0.16100
C1381       C  0.58770119  0.38022866  0.39860127     0.14000
C1382       C  0.61709617  0.38623452  0.38287172     0.01000
C1383       C  0.62718848  0.40998692  0.38392700     0.15900
C1384       C  0.60836288  0.42746994  0.40054200     0.25400
C1385       C  0.57898250  0.42155188  0.41692863    -0.41000
C1386       C  0.56887096  0.39766479  0.41569200     0.32400
C1387       C  0.63743287  0.36775897  0.36564785     0.01000
F1388       F  0.65575269  0.41623526  0.36964733    -0.13300
F1389       F  0.54060273  0.39113087  0.43045996    -0.13800
C1390       C  0.64871956  0.37035652  0.32794807     0.16000
C1391       C  0.66838427  0.35313145  0.31190655     0.25400
C1392       C  0.67642183  0.33267670  0.33295455    -0.40900
C1393       C  0.66499709  0.33004197  0.37063819     0.32300
C1394       C  0.64600863  0.34758802  0.38699550     0.14000
F1395       F  0.64005098  0.38931651  0.30628054    -0.13300
F1396       F  0.67270577  0.31069257  0.39196051    -0.13800
F1397       F  0.67860085  0.35607097  0.27527339    -0.16100
F1398       F  0.63642675  0.34507200  0.42396130    -0.14600
F1399       F  0.57698340  0.35748667  0.39683818    -0.14600
F1400       F  0.61950885  0.45011928  0.40133185    -0.16100
C1401       C  0.83114741  0.37077045  0.13270634     0.14000
C1402       C  0.86341887  0.36709448  0.12630673     0.01000
C1403       C  0.87750370  0.34597878  0.13911669     0.15900
C1404       C  0.85961275  0.32878153  0.15812808     0.25400
C1405       C  0.82728805  0.33243154  0.16469315    -0.41000
C1406       C  0.81322482  0.35360291  0.15186086     0.32400
C1407       C  0.88281839  0.38587811  0.10839642     0.01000
F1408       F  0.90882177  0.34234947  0.13423433    -0.13300
F1409       F  0.78199239  0.35738412  0.15689452    -0.13800
C1410       C  0.88590967  0.40799072  0.12666143     0.16000
C1411       C  0.90505778  0.42565764  0.11094337     0.25400
C1412       C  0.92167093  0.42152774  0.07650950    -0.40900
C1413       C  0.91822281  0.39934056  0.05798836     0.32300
C1414       C  0.89898267  0.38166878  0.07387675     0.14000
F1415       F  0.87093195  0.41225080  0.16041284    -0.13300
F1416       F  0.93282257  0.39490621  0.02404904    -0.13800
F1417       F  0.90785476  0.44661110  0.13008424    -0.16100
F1418       F  0.89575002  0.36055331  0.05529507    -0.14600
F1419       F  0.81697822  0.39092879  0.12004772    -0.14600
F1420       F  0.87411676  0.30884186  0.17114823    -0.16100
O1421       O  0.93570351  0.46240809  0.57011450    -0.74000
O1422       O  0.96525335  0.43434974  0.53957370    -0.52900
C1423       C  0.94254172  0.44070583  0.56174843     0.79800
O1424       O  0.93999275  0.04202015  0.92465469    -0.58600
O1425       O  0.96749765  0.06998587  0.95795416    -0.51600
C1426       C  0.94630719  0.06374379  0.93353853     0.71800
O1427       O  0.93756411  0.46208913  0.92914406    -0.73100
O1428       O  0.96798440  0.43407555  0.95845962    -0.53700
C1429       C  0.94488373  0.44041432  0.93706346     0.77800
O1430       O  0.93818336  0.04257138  0.57309314    -0.58300
O1431       O  0.96721191  0.07041592  0.54130464    -0.51400
C1432       C  0.94505506  0.06423146  0.56432120     0.74400
Zr1433     Zr  0.95542060  0.50221416  0.55651153     2.54700
O1434       O  0.89825855  0.50317871  0.55965126    -0.78800
O1435       O  0.95952682  0.00091740  0.62632786    -0.92200
Zr1436     Zr  0.95790935  0.50195842  0.94148045     2.64700
O1437       O  0.90083822  0.50286931  0.93559652    -0.97200
O1438       O  0.96296236  0.00050510  0.87234554    -0.79300
O1439       O  0.95560919  0.47942560  0.49923640    -0.82600
O1440       O  0.95545964  0.02527045  0.49966327    -2.17300
O1441       O  0.56241453  0.04246175  0.57832867    -0.66000
O1442       O  0.53658375  0.07011998  0.54220351    -0.50600
C1443       C  0.55629787  0.06401403  0.56835089     0.72800
O1444       O  0.56666350  0.46232224  0.92685310    -0.58900
O1445       O  0.53819260  0.43424491  0.95859913    -0.50900
C1446       C  0.55989626  0.44062122  0.93501644     0.74600
O1447       O  0.56755394  0.04219113  0.92777756    -0.70300
O1448       O  0.53847622  0.07002052  0.95937035    -0.49000
C1449       C  0.56063901  0.06384994  0.93625268     0.76000
O1450       O  0.56583383  0.46132629  0.57246999    -0.65600
O1451       O  0.53716573  0.43334573  0.54063544    -0.52800
C1452       C  0.55911712  0.43962352  0.56395708     0.74300
Zr1453     Zr  0.54807456  0.00237651  0.55789666     2.77500
O1454       O  0.60531112  0.00341808  0.55979147    -0.96400
O1455       O  0.54334298  0.00070743  0.62753410    -0.77200
Zr1456     Zr  0.54923767  0.00239721  0.94377799     2.70100
O1457       O  0.60639778  0.00227822  0.93986858    -0.78500
O1458       O  0.54416153  0.00194035  0.87422499    -0.97500
Zr1459     Zr  0.50258910  0.45635077  0.99955822     2.21500
Zr1460     Zr  0.00256497  0.04803879  0.50073754     2.11100
O1461       O  0.54947357  0.02523119  0.00095064    -2.46200
O1462       O  0.54964841  0.47910076  0.00112743    -0.78200
O1463       O  0.00196541  0.02567412  0.55884118    -0.70400
O1464       O  0.50366667  0.47869922  0.94142891    -2.31400
O1465       O  0.50118001  0.47833486  0.55824276    -2.27600
O1466       O  0.00352860  0.02550635  0.94136458    -0.72200
H1467       H  0.93702561  0.03485591  0.99851255     0.79800
H1468       H  0.50393722  0.46835568  0.91927761     0.80900
H1469       H  0.56796578  0.03540021  0.50153441     0.83100
H1470       H  0.50053011  0.46788451  0.58022529     0.80700
H1471       H  0.97379273  0.51480509  0.86478667     0.43800
H1472       H  0.53578239  0.01785607  0.86765282     0.42700
H1473       H  0.61216789  0.49830248  0.97407718     0.42400
H1474       H  0.61128232  0.01753643  0.54444663     0.40300
H1475       H  0.53302623  0.98527578  0.63297230     0.43500
H1476       H  0.96678036  0.48580508  0.63278457     0.38200
H1477       H  0.89169684  0.50956238  0.53442021     0.44400
H1478       H  0.89277478  0.01363565  0.95551430     0.40800
H1479       H  0.61047339  0.00781085  0.58658654     0.45700
H1480       H  0.93702987  0.50212052  0.63513213     0.44400
H1481       H  0.89687082  0.50790830  0.90881336     0.44600
H1482       H  0.56610026  0.00214620  0.86469528     0.44900
O1483       O  0.81795067  0.29135483  0.82286314    -0.74000
O1484       O  0.78873166  0.31959156  0.79262150    -0.52900
C1485       C  0.81068776  0.31312094  0.81581592     0.79800
O1486       O  0.81405040  0.21252908  0.67307885    -0.58600
O1487       O  0.78696447  0.18452497  0.70696809    -0.51600
C1488       C  0.80779539  0.19085997  0.68206330     0.71800
O1489       O  0.81559930  0.29205565  0.67595843    -0.73100
O1490       O  0.78775836  0.32021746  0.70863064    -0.53700
C1491       C  0.80912167  0.31375742  0.68462977     0.77800
O1492       O  0.81841394  0.21153546  0.81970563    -0.58300
O1493       O  0.78717960  0.18373914  0.79084747    -0.51400
C1494       C  0.81036891  0.18991977  0.81237850     0.74400
Zr1495     Zr  0.80044827  0.25167544  0.80530531     2.54700
O1496       O  0.85769365  0.25229758  0.80469183    -0.78800
O1497       O  0.79810830  0.25016528  0.87508210    -0.92200
Zr1498     Zr  0.79715507  0.25222727  0.69137573     2.64700
O1499       O  0.85431591  0.25258386  0.68619888    -0.97200
O1500       O  0.79020114  0.25242490  0.62204979    -0.79300
O1501       O  0.79983815  0.27493836  0.74858089    -0.82600
O1502       O  0.79936847  0.22908997  0.74801023    -2.17300
O1503       O  0.69101177  0.21257985  0.82751738    -0.66000
O1504       O  0.71686668  0.18462632  0.79196443    -0.50600
C1505       C  0.69648039  0.19096570  0.81730897     0.72800
O1506       O  0.68597720  0.29245068  0.68166895    -0.58900
O1507       O  0.71672061  0.32036618  0.71085279    -0.50900
C1508       C  0.69363629  0.31410482  0.68917621     0.74600
O1509       O  0.68622399  0.21262575  0.67972092    -0.70300
O1510       O  0.71487797  0.18445506  0.71077159    -0.49000
C1511       C  0.69252824  0.19085514  0.68814395     0.76000
O1512       O  0.68890423  0.29243803  0.82324861    -0.65600
O1513       O  0.71736115  0.32036755  0.79091023    -0.52800
C1514       C  0.69541305  0.31407754  0.81417373     0.74300
Zr1515     Zr  0.70804209  0.25247932  0.80982097     2.77500
O1516       O  0.65113188  0.25244343  0.81809163    -0.96400
O1517       O  0.71639536  0.25493832  0.87882452    -0.77200
Zr1518     Zr  0.70439645  0.25251712  0.69588409     2.70100
O1519       O  0.64726930  0.25234182  0.70012284    -0.78500
O1520       O  0.70335619  0.25381576  0.62605591    -0.97500
Zr1521     Zr  0.75305484  0.29805359  0.75065895     2.21500
Zr1522     Zr  0.75209602  0.20636198  0.74995982     2.11100
O1523       O  0.70534393  0.22967451  0.75272807    -2.46200
O1524       O  0.70589597  0.27537895  0.75289650    -0.78200
O1525       O  0.75395090  0.22852412  0.80834971    -0.70400
O1526       O  0.75096473  0.27570980  0.69246301    -2.31400
O1527       O  0.75455858  0.27554138  0.80868600    -2.28000
O1528       O  0.75054737  0.22892147  0.69206928    -0.72200
H1529       H  0.81767830  0.21894086  0.74705642     0.79800
H1530       H  0.75036180  0.28603187  0.67032732     0.80900
H1531       H  0.68678901  0.21975845  0.75354246     0.83100
H1532       H  0.75517457  0.28579622  0.83094722     0.80700
H1533       H  0.81034104  0.25863130  0.61187559     0.43800
H1534       H  0.72217680  0.24472505  0.61803554     0.42700
H1535       H  0.64279191  0.25113629  0.72794436     0.42400
H1536       H  0.64342038  0.23906824  0.80213819     0.40300
H1537       H  0.72879257  0.24056274  0.88510229     0.43500
H1538       H  0.82030671  0.25152445  0.88336896     0.38200
H1539       H  0.86359528  0.24268230  0.78197477     0.44400
H1540       H  0.86148927  0.23883745  0.70162756     0.40800
H1541       H  0.64771013  0.24721097  0.84490239     0.45700
H1542       H  0.79218369  0.23355270  0.88120066     0.44400
H1543       H  0.85873195  0.24801636  0.65927597     0.44600
H1544       H  0.68536876  0.24358764  0.61867650     0.44900
C1545       C  0.59952067  0.09967804  0.64391436     0.14000
C1546       C  0.61231324  0.11818020  0.62166691     0.01000
C1547       C  0.60590608  0.11898343  0.58211963     0.15900
C1548       C  0.58670890  0.10179589  0.56515257     0.25400
C1549       C  0.57429898  0.08309566  0.58723686    -0.41000
C1550       C  0.58093375  0.08210158  0.62673749     0.32400
C1551       C  0.63251421  0.13660517  0.63941686     0.01000
F1552       F  0.61919767  0.13596258  0.55963554    -0.13300
F1553       F  0.56913063  0.06427243  0.64874638    -0.13800
C1554       C  0.65987975  0.13021049  0.65941004     0.16000
C1555       C  0.67941457  0.14769108  0.67522598     0.25400
C1556       C  0.67204534  0.17206408  0.67114664    -0.40900
C1557       C  0.64424057  0.17828826  0.65129153     0.32300
C1558       C  0.62481680  0.16075209  0.63565181     0.14000
F1559       F  0.66815183  0.10697670  0.66279298    -0.13300
F1560       F  0.63532923  0.20134876  0.64727279    -0.13800
F1561       F  0.70567763  0.14059341  0.69414450    -0.16100
F1562       F  0.59813366  0.16739416  0.61712518    -0.14600
F1563       F  0.60486937  0.09872750  0.68230160    -0.14600
F1564       F  0.58151766  0.10278199  0.52671883    -0.16100
C1565       C  0.64762266  0.13517699  0.82943225     0.14000
C1566       C  0.63695424  0.13759797  0.86740054     0.01000
C1567       C  0.64608863  0.15754434  0.88898469     0.15900
C1568       C  0.66593447  0.17472054  0.87299589     0.25400
C1569       C  0.67690484  0.17223812  0.83504763    -0.41000
C1570       C  0.66735470  0.15236704  0.81333139     0.32400
C1571       C  0.61719366  0.11888221  0.88487867     0.01000
F1572       F  0.63629862  0.16011327  0.92586008    -0.13300
F1573       F  0.67612150  0.15001727  0.77603122    -0.13800
C1574       C  0.62889980  0.09566831  0.88832625     0.16000
C1575       C  0.61064275  0.07785449  0.90514208     0.25400
C1576       C  0.58000168  0.08286433  0.91850998    -0.40900
C1577       C  0.56840717  0.10626673  0.91514097     0.32300
C1578       C  0.58692530  0.12411626  0.89863056     0.14000
F1579       F  0.65846353  0.09039693  0.87624415    -0.13300
F1580       F  0.53895570  0.11186566  0.92720508    -0.13800
F1581       F  0.62346434  0.05588443  0.90928376    -0.16100
F1582       F  0.57512091  0.14647208  0.89556673    -0.14600
F1583       F  0.63841036  0.11634481  0.80770603    -0.14600
F1584       F  0.67485724  0.19355899  0.89488374    -0.16100
C1585       C  0.62377814  0.34615603  0.64613948     0.14000
C1586       C  0.63722552  0.36788314  0.63501467     0.01000
C1587       C  0.66916660  0.37221238  0.64269978     0.15900
C1588       C  0.68747690  0.35493864  0.66094460     0.25400
C1589       C  0.67421009  0.33293068  0.67140828    -0.41000
C1590       C  0.64207281  0.32879879  0.66401583     0.32400
C1591       C  0.61759240  0.38620707  0.61634070     0.01000
F1592       F  0.68275217  0.39303188  0.63190426    -0.13300
F1593       F  0.62807615  0.30815566  0.67493659    -0.13800
C1594       C  0.61379324  0.40853614  0.63368488     0.16000
C1595       C  0.59434060  0.42562364  0.61703330     0.25400
C1596       C  0.57848784  0.42084451  0.58228523    -0.40900
C1597       C  0.58251106  0.39839838  0.56480058     0.32300
C1598       C  0.60187726  0.38124670  0.58176834     0.14000
F1599       F  0.62848480  0.41365275  0.66729986    -0.13300
F1600       F  0.56849697  0.39321722  0.53078244    -0.13800
F1601       F  0.59064019  0.44673678  0.63547143    -0.16100
F1602       F  0.60584432  0.35991733  0.56405297    -0.14600
F1603       F  0.59266613  0.34196761  0.64044923    -0.14600
F1604       F  0.71835300  0.35951923  0.66737392    -0.16100
C1605       C  0.85937238  0.15901125  0.60924986     0.14000
C1606       C  0.86587235  0.13763953  0.62841445     0.01000
C1607       C  0.85274862  0.13356758  0.66479629     0.15900
C1608       C  0.83342564  0.15063361  0.68197410     0.25400
C1609       C  0.82677943  0.17214499  0.66295272    -0.41000
C1610       C  0.84010208  0.17617361  0.62637565     0.32400
C1611       C  0.88612680  0.11934700  0.61062623     0.01000
F1612       F  0.85935776  0.11320907  0.68411884    -0.13300
F1613       F  0.83433408  0.19665365  0.60696521    -0.13800
C1614       C  0.91798300  0.12401714  0.60295468     0.16000
C1615       C  0.93730556  0.10617886  0.58774877     0.25400
C1616       C  0.92512362  0.08325413  0.58071951    -0.40900
C1617       C  0.89304939  0.07883601  0.58794539     0.32300
C1618       C  0.87375411  0.09675932  0.60252075     0.14000
F1619       F  0.93053304  0.14566051  0.61113272    -0.13300
F1620       F  0.88002136  0.05735777  0.57973605    -0.13800
F1621       F  0.96801088  0.11120853  0.58066390    -0.16100
F1622       F  0.84275883  0.09216383  0.60833036    -0.14600
F1623       F  0.87133473  0.16310001  0.57370564    -0.14600
F1624       F  0.82237541  0.14648577  0.71791814    -0.16100
C1625       C  0.84701696  0.37294621  0.84111730     0.14000
C1626       C  0.86585200  0.36704582  0.87279699     0.01000
C1627       C  0.86612765  0.34350275  0.88613986     0.15900
C1628       C  0.84822957  0.32603384  0.86776770     0.25400
C1629       C  0.82916109  0.33184771  0.83588949    -0.41000
C1630       C  0.82867550  0.35562605  0.82300472     0.32400
C1631       C  0.88597769  0.38536475  0.89092218     0.01000
F1632       F  0.88369312  0.33740207  0.91715148    -0.13300
F1633       F  0.81131593  0.36211268  0.79204924    -0.13800
C1634       C  0.87274586  0.40665218  0.90460088     0.16000
C1635       C  0.89199422  0.42464968  0.91920991     0.25400
C1636       C  0.92477066  0.42147003  0.92109928    -0.40900
C1637       C  0.93791479  0.39987507  0.90852547     0.32300
C1638       C  0.91869487  0.38205702  0.89322799     0.14000
F1639       F  0.84110391  0.40990410  0.90415318    -0.13300
F1640       F  0.96947536  0.39631979  0.90985148    -0.13800
F1641       F  0.87849105  0.44496202  0.93243366    -0.16100
F1642       F  0.93215274  0.36185917  0.87952052    -0.14600
F1643       F  0.84724575  0.39540786  0.82680278    -0.14600
F1644       F  0.84969982  0.30343668  0.88142683    -0.16100
C1645       C  0.88186056  0.15663255  0.84748215     0.14000
C1646       C  0.86839211  0.13595139  0.86286176     0.01000
C1647       C  0.83566923  0.13259138  0.86049879     0.15900
C1648       C  0.81657504  0.15002062  0.84379275     0.25400
C1649       C  0.83002864  0.17103763  0.82927418    -0.41000
C1650       C  0.86286743  0.17404744  0.83089912     0.32400
C1651       C  0.88863813  0.11772544  0.88075426     0.01000
F1652       F  0.82223111  0.11255791  0.87484024    -0.13300
F1653       F  0.87669611  0.19357896  0.81533697    -0.13800
C1654       C  0.90595078  0.12299920  0.91400502     0.16000
C1655       C  0.92493010  0.10562802  0.93105191     0.25400
C1656       C  0.92721653  0.08265696  0.91480092    -0.40900
C1657       C  0.90993081  0.07765931  0.88109343     0.32300
C1658       C  0.89087455  0.09502413  0.86437780     0.14000
F1659       F  0.90389219  0.14486527  0.93045786    -0.13300
F1660       F  0.91151887  0.05599964  0.86391237    -0.13800
F1661       F  0.94020296  0.11116327  0.96410271    -0.16100
F1662       F  0.87487321  0.08979050  0.83171407    -0.14600
F1663       F  0.91354531  0.15965231  0.84764614    -0.14600
F1664       F  0.78495727  0.14664673  0.84274793    -0.16100
C1665       C  0.58644559  0.38084892  0.89573052     0.14000
C1666       C  0.61628608  0.38656765  0.88095963     0.01000
C1667       C  0.62726685  0.41004679  0.88370952     0.15900
C1668       C  0.60881907  0.42755657  0.90086743     0.25400
C1669       C  0.57896731  0.42191672  0.91612319    -0.41000
C1670       C  0.56803572  0.39829299  0.91344006     0.32400
C1671       C  0.63641500  0.36799369  0.86363690     0.01000
F1672       F  0.65638314  0.41594175  0.87077516    -0.13300
F1673       F  0.53941486  0.39203433  0.92749256    -0.13800
C1674       C  0.64908191  0.37106580  0.82668047     0.16000
C1675       C  0.66894595  0.35384111  0.81092064     0.25400
C1676       C  0.67579916  0.33292377  0.83147845    -0.40900
C1677       C  0.66280716  0.32979935  0.86831257     0.32300
C1678       C  0.64369852  0.34733310  0.88443334     0.14000
F1679       F  0.64172441  0.39056479  0.80552682    -0.13300
F1680       F  0.66912730  0.30997438  0.88916458    -0.13800
F1681       F  0.68060009  0.35730740  0.77505414    -0.16100
F1682       F  0.63287292  0.34436614  0.92079521    -0.14600
F1683       F  0.57495800  0.35837690  0.89261981    -0.14600
F1684       F  0.62081736  0.44990212  0.90351703    -0.16100
C1685       C  0.83207541  0.37166216  0.63652290     0.14000
C1686       C  0.86392169  0.36754585  0.62806927     0.01000
C1687       C  0.87763423  0.34575419  0.63831314     0.15900
C1688       C  0.85979714  0.32831801  0.65678967     0.25400
C1689       C  0.82790641  0.33242531  0.66551710    -0.41000
C1690       C  0.81423683  0.35429370  0.65526687     0.32400
C1691       C  0.88331106  0.38638446  0.61032112     0.01000
F1692       F  0.90859803  0.34164288  0.63144169    -0.13300
F1693       F  0.78342770  0.35864798  0.66250612    -0.13800
C1694       C  0.88737885  0.40818418  0.62932674     0.16000
C1695       C  0.90679680  0.42573569  0.61374676     0.25400
C1696       C  0.92247740  0.42184537  0.57862493    -0.40900
C1697       C  0.91796331  0.40004019  0.55933092     0.32300
C1698       C  0.89855237  0.38247040  0.57510090     0.14000
F1699       F  0.87302691  0.41226824  0.66353616    -0.13300
F1700       F  0.93158257  0.39594412  0.52468145    -0.13800
F1701       F  0.91074777  0.44633315  0.63358459    -0.16100
F1702       F  0.89413703  0.36178279  0.55564577    -0.14600
F1703       F  0.81819709  0.39244784  0.62623750    -0.14600
F1704       F  0.87401971  0.30768231  0.66719657    -0.16100
O1705       O  0.93678704  0.96240095  0.07075922    -0.74000
O1706       O  0.96625190  0.93440846  0.03986996    -0.52900
C1707       C  0.94382265  0.94072560  0.06251439     0.79800
O1708       O  0.94195756  0.54228136  0.42412718    -0.58600
O1709       O  0.96958448  0.57003740  0.45781352    -0.51600
C1710       C  0.94875792  0.56393608  0.43285074     0.71800
O1711       O  0.93697375  0.96317511  0.42873693    -0.73100
O1712       O  0.96719079  0.93497854  0.45795175    -0.53700
C1713       C  0.94423518  0.94148353  0.43632953     0.77800
O1714       O  0.93714754  0.54201451  0.07107864    -0.58300
O1715       O  0.96602415  0.56989348  0.03917180    -0.51400
C1716       C  0.94362553  0.56365795  0.06186833     0.74400
Zr1717     Zr  0.95577595  0.00220772  0.05615240     2.54700
O1718       O  0.89860296  0.00311798  0.05877141    -0.78800
O1719       O  0.95844324  0.50033398  0.12552044    -0.92200
Zr1720     Zr  0.95717377  0.00269517  0.44240046     2.64700
O1721       O  0.90000589  0.00357070  0.43770635    -0.97200
O1722       O  0.96418838  0.50074064  0.37271073    -0.79300
O1723       O  0.95607220  0.97930321  0.99904924    -0.82600
O1724       O  0.95587764  0.52470006  0.99862261    -2.17300
O1725       O  0.56306049  0.54169810  0.07881995    -0.66000
O1726       O  0.53743410  0.56952398  0.04283823    -0.50600
C1727       C  0.55726199  0.56329864  0.06888624     0.72800
O1728       O  0.56825434  0.96273978  0.42814485    -0.58900
O1729       O  0.53914674  0.93452263  0.45893336    -0.50900
C1730       C  0.56144652  0.94096993  0.43614530     0.74600
O1731       O  0.56868252  0.54167340  0.42876108    -0.70300
O1732       O  0.53930111  0.56961013  0.45977102    -0.49000
C1733       C  0.56167282  0.56336254  0.43699449     0.76000
O1734       O  0.56604504  0.96215088  0.07390308    -0.65600
O1735       O  0.53782653  0.93417458  0.04133150    -0.52800
C1736       C  0.55943632  0.94042095  0.06520139     0.74300
Zr1737     Zr  0.54781772  0.50184110  0.05838291     2.77500
O1738       O  0.60509260  0.50274965  0.05975194    -0.96400
O1739       O  0.54401784  0.49932445  0.12797327    -0.77200
Zr1740     Zr  0.54993192  0.50189560  0.44439668     2.70100
O1741       O  0.60708984  0.49996496  0.44540706    -0.78500
O1742       O  0.54886062  0.50311600  0.37457026    -0.97500
Zr1743     Zr  0.50285354  0.95654975  0.49960444     2.21500
Zr1744     Zr  0.00306383  0.54759284  0.00050380     2.11100
O1745       O  0.54992795  0.52457789  0.50170543    -2.46200
O1746       O  0.54965190  0.97972223  0.50049624    -0.78200
O1747       O  0.00151184  0.52533670  0.05872441    -0.70400
O1748       O  0.50311018  0.97905991  0.44146440    -2.31400
O1749       O  0.50189009  0.97894243  0.05821308    -2.27600
O1750       O  0.00414401  0.52547970  0.44254053    -0.72200
H1751       H  0.93766060  0.53505235  0.49848957     0.79800
H1752       H  0.50327970  0.96876414  0.41924507     0.80900
H1753       H  0.56819331  0.53488333  0.00238644     0.83100
H1754       H  0.50156472  0.96854715  0.08026988     0.80700
H1755       H  0.94207145  0.99968467  0.36287744     0.43800
H1756       H  0.53737962  0.51793393  0.36830925     0.42700
H1757       H  0.61424123  0.00509465  0.46315493     0.42400
H1758       H  0.61105841  0.51766805  0.04651180     0.40300
H1759       H  0.53175823  0.51354037  0.13555478     0.43500
H1760       H  0.93823387  0.00272599  0.13500755     0.38200
H1761       H  0.89202341  0.00510490  0.03171036     0.44400
H1762       H  0.89356943  0.51698644  0.45027322     0.40800
H1763       H  0.61046009  0.50557738  0.08702537     0.45700
H1764       H  0.97018595  0.01651675  0.13262336     0.44400
H1765       H  0.89558360  0.00803123  0.41076601     0.44600
H1766       H  0.57089985  0.50641719  0.36706348     0.44900
O1767       O  0.81933535  0.79182808  0.32108472    -0.74000
O1768       O  0.78968367  0.81965353  0.29042378    -0.52900
C1769       C  0.81176432  0.81351858  0.31362833     0.79800
O1770       O  0.81360365  0.71153441  0.17189322    -0.58600
O1771       O  0.78669244  0.68379311  0.20655551    -0.51600
C1772       C  0.80695467  0.68991501  0.18094368     0.71800
O1773       O  0.81770598  0.79152444  0.17573021    -0.73100
O1774       O  0.78881100  0.81962465  0.20726575    -0.53700
C1775       C  0.81071172  0.81322883  0.18398334     0.77800
O1776       O  0.82054794  0.71179151  0.31950833    -0.58300
O1777       O  0.78969130  0.68385468  0.29033327    -0.51400
C1778       C  0.81288132  0.69012272  0.31185966     0.74400
Zr1779     Zr  0.80196300  0.75176093  0.30456216     2.54700
O1780       O  0.85921619  0.75216015  0.30300098    -0.78800
O1781       O  0.80009796  0.75042915  0.37435226    -0.92200
Zr1782     Zr  0.79856437  0.75168725  0.19066145     2.64700
O1783       O  0.85571869  0.75056686  0.18572426    -0.97200
O1784       O  0.79095628  0.75285147  0.12146452    -0.79300
O1785       O  0.80101133  0.77471859  0.24754599    -0.82600
O1786       O  0.80069366  0.72880872  0.24759457    -2.17300
O1787       O  0.69147950  0.71209922  0.32610294    -0.66000
O1788       O  0.71774738  0.68399968  0.29130591    -0.50600
C1789       C  0.69702048  0.69040347  0.31619455     0.72800
O1790       O  0.68638890  0.79188449  0.18154862    -0.58900
O1791       O  0.71806083  0.81992438  0.20886210    -0.50900
C1792       C  0.69441702  0.81360346  0.18814454     0.74600
O1793       O  0.68775746  0.71203305  0.17891580    -0.70300
O1794       O  0.71634205  0.68418340  0.21081536    -0.49000
C1795       C  0.69413260  0.69035865  0.18784263     0.76000
O1796       O  0.69084004  0.79219348  0.32313328    -0.65600
O1797       O  0.71868387  0.82006735  0.29010188    -0.52800
C1798       C  0.69711938  0.81386741  0.31399593     0.74300
Zr1799     Zr  0.70920307  0.75210530  0.30884090     2.77500
O1800       O  0.65212709  0.75297055  0.31451322    -0.96400
O1801       O  0.71652542  0.75323713  0.37814442    -0.77200
Zr1802     Zr  0.70601188  0.75195834  0.19454065     2.70100
O1803       O  0.64884605  0.75099541  0.19072019    -0.78500
O1804       O  0.71066014  0.75268117  0.12493373    -0.97500
Zr1805     Zr  0.75402708  0.79765372  0.24930248     2.21500
Zr1806     Zr  0.75339809  0.70607201  0.25013375     2.11100
O1807       O  0.70662494  0.72933941  0.25183039    -2.46200
O1808       O  0.70698645  0.77483559  0.25163798    -0.78200
O1809       O  0.75544121  0.72847806  0.30818359    -0.70400
O1810       O  0.75239082  0.77524470  0.19121345    -2.31400
O1811       O  0.75571661  0.77531111  0.30745137    -2.28000
O1812       O  0.75208960  0.72831542  0.19195685    -0.72200
H1813       H  0.81897206  0.71862133  0.24658200     0.79800
H1814       H  0.75184997  0.78553169  0.16903490     0.80900
H1815       H  0.68806750  0.71943092  0.25260477     0.83100
H1816       H  0.75628378  0.78574549  0.32947886     0.80700
H1817       H  0.81166238  0.74840432  0.11063216     0.43800
H1818       H  0.72087145  0.73738894  0.11829983     0.42700
H1819       H  0.64223346  0.74021267  0.21169115     0.42400
H1820       H  0.64461270  0.73904521  0.29967454     0.40300
H1821       H  0.72288847  0.76981503  0.38388781     0.43500
H1822       H  0.78953789  0.76539885  0.38199149     0.38200
H1823       H  0.86447546  0.75593948  0.27599655     0.44400
H1824       H  0.86230738  0.73744098  0.20286172     0.40800
H1825       H  0.64785783  0.74888360  0.34165336     0.45700
H1826       H  0.82223526  0.75259864  0.38242505     0.44400
H1827       H  0.86003580  0.74462439  0.15948858     0.44600
H1828       H  0.68878509  0.75093738  0.11561788     0.44900
C1829       C  0.60207117  0.59810149  0.14450266     0.14000
C1830       C  0.61476387  0.61674443  0.12248993     0.01000
C1831       C  0.60790770  0.61788417  0.08306926     0.15900
C1832       C  0.58823397  0.60100116  0.06603013     0.25400
C1833       C  0.57579553  0.58218521  0.08785564    -0.41000
C1834       C  0.58304289  0.58078837  0.12722092     0.32400
C1835       C  0.63471962  0.63533219  0.14036904     0.01000
F1836       F  0.62098268  0.63507674  0.06081407    -0.13300
F1837       F  0.57124077  0.56289114  0.14908274    -0.13800
C1838       C  0.66246288  0.62931129  0.15994366     0.16000
C1839       C  0.68185277  0.64708475  0.17521521     0.25400
C1840       C  0.67389005  0.67134577  0.17117116    -0.40900
C1841       C  0.64570223  0.67719748  0.15189578     0.32300
C1842       C  0.62643909  0.65939031  0.13678418     0.14000
F1843       F  0.67127667  0.60620350  0.16342509    -0.13300
F1844       F  0.63625873  0.70014293  0.14796381    -0.13800
F1845       F  0.70860104  0.64040510  0.19353026    -0.16100
F1846       F  0.59933002  0.66567859  0.11887801    -0.14600
F1847       F  0.60767243  0.59688397  0.18281998    -0.14600
F1848       F  0.58243735  0.60250301  0.02778214    -0.16100
C1849       C  0.64693346  0.63505092  0.32903358     0.14000
C1850       C  0.63831880  0.63686829  0.36783999     0.01000
C1851       C  0.64906788  0.65625750  0.38961274     0.15900
C1852       C  0.66844766  0.67352510  0.37292203     0.25400
C1853       C  0.67745738  0.67165367  0.33414600    -0.41000
C1854       C  0.66634552  0.65229214  0.31226526     0.32400
C1855       C  0.61865058  0.61823807  0.38578400     0.01000
F1856       F  0.64118628  0.65822973  0.42724848    -0.13300
F1857       F  0.67330212  0.65051314  0.27432367    -0.13800
C1858       C  0.63094354  0.59537480  0.39154553     0.16000
C1859       C  0.61250194  0.57759578  0.40829071     0.25400
C1860       C  0.58120191  0.58233561  0.41940353    -0.40900
C1861       C  0.56908705  0.60542501  0.41394801     0.32300
C1862       C  0.58770731  0.62320810  0.39733840     0.14000
F1863       F  0.66113378  0.59042482  0.38165352    -0.13300
F1864       F  0.53904020  0.61072828  0.42401216    -0.13800
F1865       F  0.62568433  0.55594831  0.41462720    -0.16100
F1866       F  0.57537850  0.64522528  0.39198465    -0.14600
F1867       F  0.63596858  0.61679381  0.30723824    -0.14600
F1868       F  0.67894902  0.69184368  0.39489757    -0.16100
C1869       C  0.62371073  0.84595794  0.14731946     0.14000
C1870       C  0.63696472  0.86765302  0.13560221     0.01000
C1871       C  0.66923516  0.87167998  0.14154415     0.15900
C1872       C  0.68802616  0.85415175  0.15853417     0.25400
C1873       C  0.67473570  0.83245244  0.17059113    -0.41000
C1874       C  0.64227798  0.82866848  0.16510706     0.32400
C1875       C  0.61698295  0.88614806  0.11762717     0.01000
F1876       F  0.68267685  0.89241860  0.13010293    -0.13300
F1877       F  0.62827501  0.80844000  0.17786201    -0.13800
C1878       C  0.61303170  0.90832586  0.13553737     0.16000
C1879       C  0.59366606  0.92565783  0.11910618     0.25400
C1880       C  0.57852683  0.92143156  0.08369791    -0.40900
C1881       C  0.58293816  0.89921990  0.06555774     0.32300
C1882       C  0.60156795  0.88164796  0.08270515     0.14000
F1883       F  0.62763014  0.91308313  0.16934635    -0.13300
F1884       F  0.57026262  0.89476414  0.03051048    -0.13800
F1885       F  0.58948881  0.94648936  0.13821303    -0.16100
F1886       F  0.60525715  0.86039417  0.06468430    -0.14600
F1887       F  0.59256422  0.84168909  0.14217077    -0.14600
F1888       F  0.71935269  0.85814182  0.16209190    -0.16100
C1889       C  0.85574102  0.65758322  0.10620449     0.14000
C1890       C  0.86245044  0.63615653  0.12512155     0.01000
C1891       C  0.84967803  0.63198195  0.16168844     0.15900
C1892       C  0.83087828  0.64913579  0.17944879     0.25400
C1893       C  0.82467075  0.67091174  0.16097623    -0.41000
C1894       C  0.83710478  0.67485427  0.12398045     0.32400
C1895       C  0.88296339  0.61810783  0.10711308     0.01000
F1896       F  0.85627361  0.61151917  0.18073873    -0.13300
F1897       F  0.83106261  0.69537356  0.10481042    -0.13800
C1898       C  0.91439052  0.62346196  0.09804677     0.16000
C1899       C  0.93420636  0.60586840  0.08309056     0.25400
C1900       C  0.92298002  0.58252155  0.07754029    -0.40900
C1901       C  0.89125489  0.57741978  0.08604427     0.32300
C1902       C  0.87145330  0.59509313  0.10040434     0.14000
F1903       F  0.92613211  0.64555384  0.10475817    -0.13300
F1904       F  0.87905282  0.55543898  0.07961462    -0.13800
F1905       F  0.96454929  0.61154506  0.07504904    -0.16100
F1906       F  0.84082449  0.58980048  0.10747879    -0.14600
F1907       F  0.86701055  0.66168299  0.07033986    -0.14600
F1908       F  0.81992615  0.64478194  0.21538697    -0.16100
C1909       C  0.84707390  0.87398887  0.33752383     0.14000
C1910       C  0.86560343  0.86859176  0.36971231     0.01000
C1911       C  0.86572751  0.84527016  0.38402484     0.15900
C1912       C  0.84820127  0.82746010  0.36599465     0.25400
C1913       C  0.82982290  0.83265114  0.33330019    -0.41000
C1914       C  0.82926491  0.85626889  0.31955039     0.32400
C1915       C  0.88561555  0.88709663  0.38755610     0.01000
F1916       F  0.88274049  0.83974394  0.41576360    -0.13300
F1917       F  0.81224785  0.86222285  0.28802831    -0.13800
C1918       C  0.87238388  0.90851310  0.40066635     0.16000
C1919       C  0.89155048  0.92632990  0.41602357     0.25400
C1920       C  0.92421710  0.92278694  0.41940397    -0.40900
C1921       C  0.93735148  0.90119297  0.40691083     0.32300
C1922       C  0.91824173  0.88357280  0.39086555     0.14000
F1923       F  0.84080054  0.91198377  0.39928585    -0.13300
F1924       F  0.96882975  0.89743492  0.40908694    -0.13800
F1925       F  0.87802180  0.94681111  0.42852222    -0.16100
F1926       F  0.93171989  0.86324237  0.37772033    -0.14600
F1927       F  0.84702051  0.89632154  0.32267411    -0.14600
F1928       F  0.84914893  0.80517243  0.38095169    -0.16100
C1929       C  0.88502026  0.65694235  0.34591125     0.14000
C1930       C  0.87181514  0.63601611  0.36077668     0.01000
C1931       C  0.83913635  0.63250879  0.35854730     0.15900
C1932       C  0.81979238  0.65001791  0.34247692     0.25400
C1933       C  0.83293755  0.67124567  0.32830492    -0.41000
C1934       C  0.86578649  0.67438285  0.32970765     0.32400
C1935       C  0.89221138  0.61787141  0.37862559     0.01000
F1936       F  0.82596245  0.61230222  0.37262000    -0.13300
F1937       F  0.87938231  0.69405989  0.31432376    -0.13800
C1938       C  0.90864265  0.62304343  0.41256574     0.16000
C1939       C  0.92767147  0.60579167  0.42978041     0.25400
C1940       C  0.93055988  0.58295320  0.41328063    -0.40900
C1941       C  0.91442706  0.57809030  0.37870241     0.32300
C1942       C  0.89538091  0.59536744  0.36171806     0.14000
F1943       F  0.90551663  0.64464850  0.42962982    -0.13300
F1944       F  0.91720938  0.55666453  0.36096400    -0.13800
F1945       F  0.94239427  0.61129253  0.46321594    -0.16100
F1946       F  0.88018124  0.59020171  0.32846412    -0.14600
F1947       F  0.91666035  0.66024379  0.34644465    -0.14600
F1948       F  0.78819997  0.64652019  0.34177010    -0.16100
C1949       C  0.58702852  0.88217626  0.39172655     0.14000
C1950       C  0.61875661  0.88678582  0.38295177     0.01000
C1951       C  0.63142488  0.90922613  0.39169001     0.15900
C1952       C  0.61268446  0.92686995  0.40831374     0.25400
C1953       C  0.58103085  0.92220178  0.41789070    -0.41000
C1954       C  0.56850258  0.89954341  0.40966260     0.32400
C1955       C  0.63882505  0.86817121  0.36519619     0.01000
F1956       F  0.66227680  0.91390586  0.38493872    -0.13300
F1957       F  0.53808463  0.89434596  0.41802649    -0.13800
C1958       C  0.65553243  0.87283615  0.33117270     0.16000
C1959       C  0.67508062  0.85549299  0.31500338     0.25400
C1960       C  0.67769558  0.83281564  0.33202396    -0.40900
C1961       C  0.66064172  0.82817356  0.36597895     0.32300
C1962       C  0.64183097  0.84576406  0.38260058     0.14000
F1963       F  0.65243106  0.89409739  0.31309758    -0.13300
F1964       F  0.66240770  0.80668247  0.38362699    -0.13800
F1965       F  0.69072136  0.86079732  0.28210489    -0.16100
F1966       F  0.62704287  0.84103327  0.41629483    -0.14600
F1967       F  0.57378160  0.86098147  0.38220128    -0.14600
F1968       F  0.62590576  0.94835827  0.41594170    -0.16100
C1969       C  0.83334554  0.87117713  0.13576426     0.14000
C1970       C  0.86576075  0.86787241  0.13017931     0.01000
C1971       C  0.87995965  0.84668605  0.14240151     0.15900
C1972       C  0.86201327  0.82890833  0.15983526     0.25400
C1973       C  0.82951951  0.83209970  0.16549316    -0.41000
C1974       C  0.81535356  0.85344170  0.15343298     0.32400
C1975       C  0.88514131  0.88666401  0.11245336     0.01000
F1976       F  0.91143138  0.84351076  0.13827958    -0.13300
F1977       F  0.78399946  0.85689651  0.15794594    -0.13800
C1978       C  0.89029432  0.90815546  0.13194126     0.16000
C1979       C  0.90980282  0.92557654  0.11604980     0.25400
C1980       C  0.92427630  0.92184878  0.08010762    -0.40900
C1981       C  0.91899558  0.90021798  0.06066340     0.32300
C1982       C  0.89966952  0.88275677  0.07681941     0.14000
F1983       F  0.87702230  0.91199132  0.16686502    -0.13300
F1984       F  0.93182449  0.89618566  0.02555191    -0.13800
F1985       F  0.91511920  0.94584022  0.13631909    -0.16100
F1986       F  0.89479340  0.86209201  0.05748146    -0.14600
F1987       F  0.81910494  0.89144131  0.12366228    -0.14600
F1988       F  0.87662248  0.80889703  0.17235717    -0.16100
O1989       O  0.93634081  0.96268614  0.57076048    -0.74000
O1990       O  0.96528797  0.93468894  0.53913607    -0.52900
C1991       C  0.94301332  0.94102455  0.56204404     0.79800
O1992       O  0.94260561  0.54218587  0.92304104    -0.58600
O1993       O  0.96954144  0.57004003  0.95732254    -0.51600
C1994       C  0.94905781  0.56388485  0.93197102     0.71800
O1995       O  0.93740917  0.96234588  0.92868571    -0.73100
O1996       O  0.96730994  0.93429751  0.95874615    -0.53700
C1997       C  0.94450461  0.94071029  0.93683258     0.77800
O1998       O  0.93782140  0.54248071  0.57127267    -0.58300
O1999       O  0.96673841  0.57035090  0.53950109    -0.51400
C2000       C  0.94431609  0.56413931  0.56216595     0.74400
Zr2001     Zr  0.95558232  0.00243426  0.55666301     2.54700
O2002       O  0.89836891  0.00346088  0.55779242    -0.78800
O2003       O  0.95915273  0.50194198  0.62626430    -0.92200
Zr2004     Zr  0.95718054  0.00202522  0.94183430     2.64700
O2005       O  0.90003892  0.00139387  0.93708505    -0.97200
O2006       O  0.96464961  0.49927274  0.87222815    -0.79300
O2007       O  0.95594427  0.97973054  0.49933940    -0.82600
O2008       O  0.95597056  0.52489963  0.49925565    -2.17300
O2009       O  0.56304278  0.54125942  0.57941741    -0.66000
O2010       O  0.53783079  0.56918429  0.54317200    -0.50600
C2011       C  0.55745152  0.56288030  0.56941918     0.72800
O2012       O  0.56821502  0.96270627  0.92887572    -0.58900
O2013       O  0.53885679  0.93446652  0.95921014    -0.50900
C2014       C  0.56132771  0.94096990  0.93673145     0.74600
O2015       O  0.56859170  0.54200239  0.92906611    -0.70300
O2016       O  0.53933002  0.56986667  0.96039333    -0.49000
C2017       C  0.56174978  0.56365723  0.93770168     0.76000
O2018       O  0.56678147  0.96249130  0.57318424    -0.65600
O2019       O  0.53831067  0.93441325  0.54123474    -0.52800
C2020       C  0.56005799  0.94073429  0.56491657     0.74300
Zr2021     Zr  0.54782591  0.50148756  0.55850337     2.77500
O2022       O  0.60511530  0.50186958  0.56000042    -0.96400
O2023       O  0.54503375  0.49904989  0.62818629    -0.77200
Zr2024     Zr  0.55004786  0.50214560  0.94426372     2.70100
O2025       O  0.60721790  0.50070659  0.94659003    -0.78500
O2026       O  0.54983935  0.50336783  0.87440441    -0.97500
Zr2027     Zr  0.50264535  0.95648889  0.99992992     2.21500
Zr2028     Zr  0.00330980  0.54765880  0.50082242     2.11100
O2029       O  0.54979209  0.52480005  0.00154111    -2.46200
O2030       O  0.54958792  0.97945150  0.00078545    -0.78200
O2031       O  0.00189553  0.52542145  0.55909171    -0.70400
O2032       O  0.50292225  0.97891914  0.94189667    -2.31400
O2033       O  0.50176303  0.97893045  0.55787546    -2.27600
O2034       O  0.00431942  0.52544275  0.94216810    -0.72200
H2035       H  0.93752041  0.53480237  0.99774456     0.79800
H2036       H  0.50310517  0.96860752  0.91970550     0.80900
H2037       H  0.56837047  0.53462393  0.50249925     0.83100
H2038       H  0.50140380  0.96850569  0.57989209     0.80700
H2039       H  0.97233442  0.01605561  0.86543937     0.43800
H2040       H  0.53621556  0.48991425  0.86659793     0.42700
H2041       H  0.61336798  0.01086693  0.96319027     0.42400
H2042       H  0.61127553  0.51643483  0.54591572     0.40300
H2043       H  0.52357851  0.49314604  0.63372700     0.43500
H2044       H  0.93744239  0.00007078  0.63526358     0.38200
H2045       H  0.89238383  0.00990766  0.53238725     0.44400
H2046       H  0.89402525  0.51653587  0.95150883     0.40800
H2047       H  0.61047044  0.50529023  0.58710812     0.45700
H2048       H  0.96667829  0.01702066  0.63388467     0.44400
H2049       H  0.89533417  0.00812736  0.91147897     0.44600
H2050       H  0.53747781  0.51774013  0.86797056     0.44900
O2051       O  0.81856104  0.79155346  0.82235141    -0.74000
O2052       O  0.78993345  0.81949016  0.79062546    -0.52900
C2053       C  0.81163687  0.81326040  0.81422778     0.79800
O2054       O  0.81363942  0.71186205  0.67210623    -0.58600
O2055       O  0.78682470  0.68407814  0.70678653    -0.51600
C2056       C  0.80708789  0.69023768  0.68116538     0.71800
O2057       O  0.81794542  0.79156225  0.67663331    -0.73100
O2058       O  0.78880306  0.81954057  0.70810360    -0.53700
C2059       C  0.81088386  0.81323629  0.68495159     0.77800
O2060       O  0.81982429  0.71156258  0.81991856    -0.58300
O2061       O  0.78904356  0.68371658  0.79043876    -0.51400
C2062       C  0.81219256  0.68992916  0.81204765     0.74400
Zr2063     Zr  0.80117615  0.75156600  0.80571063     2.54700
O2064       O  0.85840336  0.75259314  0.80694158    -0.78800
O2065       O  0.79847256  0.74989460  0.87547324    -0.92200
Zr2066     Zr  0.79843364  0.75183214  0.69148046     2.64700
O2067       O  0.85562254  0.75094475  0.68704887    -0.97200
O2068       O  0.79130800  0.75288522  0.62219988    -0.79300
O2069       O  0.80067983  0.77454848  0.74871563    -0.82600
O2070       O  0.80036352  0.72886382  0.74837167    -2.17300
O2071       O  0.69126302  0.71212445  0.82708632    -0.66000
O2072       O  0.71745927  0.68420833  0.79179639    -0.50600
C2073       C  0.69695422  0.69048690  0.81705233     0.72800
O2074       O  0.68498565  0.79217224  0.68439845    -0.58900
O2075       O  0.71720346  0.82005879  0.71116625    -0.50900
C2076       C  0.69307774  0.81386166  0.69121109     0.74600
O2077       O  0.68776453  0.71224325  0.67869354    -0.70300
O2078       O  0.71616974  0.68427635  0.71064077    -0.49000
C2079       C  0.69406523  0.69051234  0.68754947     0.76000
O2080       O  0.69038451  0.79208116  0.82466896    -0.65600
O2081       O  0.71880924  0.81979240  0.79194149    -0.52800
C2082       C  0.69707885  0.81372941  0.81573461     0.74300
Zr2083     Zr  0.70858792  0.75206011  0.80936410     2.77500
O2084       O  0.65141693  0.75252905  0.81368074    -0.96400
O2085       O  0.71618187  0.75296723  0.87859233    -0.77200
Zr2086     Zr  0.70579351  0.75224427  0.69502076     2.70100
O2087       O  0.64871299  0.75015750  0.69133265    -0.78500
O2088       O  0.71095074  0.75525574  0.62562675    -0.97500
Zr2089     Zr  0.75383279  0.79760908  0.75028283     2.21500
Zr2090     Zr  0.75303988  0.70613475  0.75029060     2.11100
O2091       O  0.70634333  0.72945262  0.75211204    -2.46200
O2092       O  0.70676423  0.77489493  0.75229311    -0.78200
O2093       O  0.75468683  0.72828697  0.80863907    -0.70400
O2094       O  0.75228021  0.77545840  0.69198219    -2.31400
O2095       O  0.75509307  0.77525076  0.80844053    -2.28000
O2096       O  0.75185061  0.72853291  0.69227916    -0.72200
H2097       H  0.81863540  0.71867371  0.74736052     0.79800
H2098       H  0.75177867  0.78585861  0.66993923     0.80900
H2099       H  0.68780538  0.71951807  0.75272625     0.83100
H2100       H  0.75558182  0.78563353  0.83054650     0.80700
H2101       H  0.81249197  0.75646870  0.61191151     0.43800
H2102       H  0.72330794  0.74105617  0.61818332     0.42700
H2103       H  0.64129890  0.75871079  0.71449168     0.42400
H2104       H  0.64427434  0.74043025  0.79491603     0.40300
H2105       H  0.69564607  0.75820693  0.88897742     0.43500
H2106       H  0.78453466  0.76324231  0.88283432     0.38200
H2107       H  0.86482304  0.74517402  0.78237287     0.44400
H2108       H  0.86220975  0.73803772  0.70460842     0.40800
H2109       H  0.64653471  0.74557571  0.83908866     0.45700
H2110       H  0.81964175  0.75491967  0.88411028     0.44400
H2111       H  0.86013773  0.74474120  0.66101752     0.44600
H2112       H  0.68952720  0.75203866  0.61578637     0.44900
C2113       C  0.60164687  0.59805801  0.64526815     0.14000
C2114       C  0.61415146  0.61677444  0.62323080     0.01000
C2115       C  0.60768354  0.61765041  0.58371098     0.15900
C2116       C  0.58847691  0.60050274  0.56659644     0.25400
C2117       C  0.57597759  0.58174331  0.58848060    -0.41000
C2118       C  0.58306724  0.58047555  0.62791560     0.32400
C2119       C  0.63411160  0.63542360  0.64096181     0.01000
F2120       F  0.62086173  0.63475995  0.56138896    -0.13300
F2121       F  0.57174712  0.56236902  0.64971260    -0.13800
C2122       C  0.66203917  0.62941421  0.66010820     0.16000
C2123       C  0.68172295  0.64719649  0.67481437     0.25400
C2124       C  0.67377557  0.67148202  0.67084331    -0.40900
C2125       C  0.64543281  0.67732206  0.65189323     0.32300
C2126       C  0.62593288  0.65949693  0.63720488     0.14000
F2127       F  0.67074989  0.60628467  0.66364698    -0.13300
F2128       F  0.63609175  0.70028096  0.64785854    -0.13800
F2129       F  0.70876820  0.64049050  0.69243421    -0.16100
F2130       F  0.59873072  0.66578057  0.61950299    -0.14600
F2131       F  0.60715224  0.59695160  0.68361768    -0.14600
F2132       F  0.58337892  0.60159530  0.52816386    -0.16100
C2133       C  0.64807230  0.63468409  0.83060346     0.14000
C2134       C  0.63924161  0.63669355  0.86930434     0.01000
C2135       C  0.64972704  0.65621297  0.89093021     0.15900
C2136       C  0.66888313  0.67354941  0.87410851     0.25400
C2137       C  0.67785392  0.67161768  0.83531208    -0.41000
C2138       C  0.66722274  0.65200406  0.81368699     0.32400
C2139       C  0.61944991  0.61821407  0.88727943     0.01000
F2140       F  0.64179385  0.65823466  0.92855003    -0.13300
F2141       F  0.67443725  0.65002061  0.77584295    -0.13800
C2142       C  0.63142044  0.59523668  0.89275070     0.16000
C2143       C  0.61280422  0.57761743  0.90955029     0.25400
C2144       C  0.58158834  0.58259830  0.92071600    -0.40900
C2145       C  0.56986453  0.60584152  0.91577612     0.32300
C2146       C  0.58870893  0.62349167  0.89925521     0.14000
F2147       F  0.66144267  0.59000661  0.88247691    -0.13300
F2148       F  0.53999409  0.61142853  0.92621887    -0.13800
F2149       F  0.62572372  0.55587403  0.91584698    -0.16100
F2150       F  0.57677913  0.64567427  0.89431933    -0.14600
F2151       F  0.63755754  0.61617354  0.80903418    -0.14600
F2152       F  0.67922954  0.69196088  0.89599337    -0.16100
C2153       C  0.62191688  0.84671627  0.65238554     0.14000
C2154       C  0.63538084  0.86812319  0.63961521     0.01000
C2155       C  0.66778560  0.87190458  0.64483068     0.15900
C2156       C  0.68650773  0.85444048  0.66205906     0.25400
C2157       C  0.67313585  0.83287535  0.67457319    -0.41000
C2158       C  0.64053172  0.82933914  0.66997291     0.32400
C2159       C  0.61568369  0.88648542  0.62075145     0.01000
F2160       F  0.68148929  0.89225164  0.63210773    -0.13300
F2161       F  0.62651641  0.80921390  0.68313161    -0.13800
C2162       C  0.61270186  0.90920021  0.63710775     0.16000
C2163       C  0.59437338  0.92664078  0.61926903     0.25400
C2164       C  0.57885668  0.92184504  0.58425197    -0.40900
C2165       C  0.58200786  0.89898758  0.56789202     0.32300
C2166       C  0.59998466  0.88145204  0.58619693     0.14000
F2167       F  0.62712913  0.91437216  0.67087274    -0.13300
F2168       F  0.56848796  0.89373073  0.53361638    -0.13800
F2169       F  0.59142122  0.94811275  0.63681262    -0.16100
F2170       F  0.60266043  0.85964143  0.56971497    -0.14600
F2171       F  0.59060931  0.84274243  0.64814985    -0.14600
F2172       F  0.71791240  0.85828506  0.66514396    -0.16100
C2173       C  0.85553307  0.65768820  0.60621480     0.14000
C2174       C  0.86260076  0.63641669  0.62538731     0.01000
C2175       C  0.85030849  0.63248074  0.66228607     0.15900
C2176       C  0.83142051  0.64962081  0.67993230     0.25400
C2177       C  0.82492348  0.67126675  0.66123409    -0.41000
C2178       C  0.83721234  0.67510285  0.62411743     0.32400
C2179       C  0.88320264  0.61839369  0.60740921     0.01000
F2180       F  0.85753627  0.61231916  0.68182779    -0.13300
F2181       F  0.83148470  0.69569322  0.60500746    -0.13800
C2182       C  0.91403936  0.62420810  0.59624953     0.16000
C2183       C  0.93401492  0.60670991  0.58131024     0.25400
C2184       C  0.92358509  0.58297766  0.57790126    -0.40900
C2185       C  0.89240576  0.57742250  0.58852627     0.32300
C2186       C  0.87240351  0.59500409  0.60268491     0.14000
F2187       F  0.92507050  0.64672264  0.60074519    -0.13300
F2188       F  0.88083706  0.55503892  0.58443067    -0.13800
F2189       F  0.96372199  0.61293904  0.57108642    -0.16100
F2190       F  0.84220358  0.58923943  0.61136736    -0.14600
F2191       F  0.86623763  0.66152472  0.57001237    -0.14600
F2192       F  0.82080176  0.64544788  0.71607280    -0.16100
C2193       C  0.84697153  0.87370427  0.83765815     0.14000
C2194       C  0.86596568  0.86826467  0.86939409     0.01000
C2195       C  0.86653474  0.84490410  0.88348925     0.15900
C2196       C  0.84902150  0.82706261  0.86561895     0.25400
C2197       C  0.83002495  0.83231802  0.83348859    -0.41000
C2198       C  0.82911952  0.85596760  0.81988761     0.32400
C2199       C  0.88598277  0.88674955  0.88709867     0.01000
F2200       F  0.88396298  0.83937692  0.91489210    -0.13300
F2201       F  0.81171003  0.86195727  0.78870042    -0.13800
C2202       C  0.87268542  0.90796538  0.90089262     0.16000
C2203       C  0.89180544  0.92555169  0.91694278     0.25400
C2204       C  0.92448827  0.92202324  0.92003434    -0.40900
C2205       C  0.93768749  0.90063563  0.90680758     0.32300
C2206       C  0.91862943  0.88325258  0.89007562     0.14000
F2207       F  0.84110710  0.91146562  0.89945615    -0.13300
F2208       F  0.96915498  0.89686258  0.90897522    -0.13800
F2209       F  0.87823273  0.94577057  0.93043879    -0.16100
F2210       F  0.93215429  0.86319616  0.87592659    -0.14600
F2211       F  0.84641855  0.89610625  0.82310237    -0.14600
F2212       F  0.85072064  0.80467831  0.88009679    -0.16100
C2213       C  0.88429099  0.65687824  0.84626251     0.14000
C2214       C  0.87118755  0.63567759  0.86026108     0.01000
C2215       C  0.83854076  0.63204255  0.85759219     0.15900
C2216       C  0.81916771  0.64964922  0.84186575     0.25400
C2217       C  0.83225971  0.67103907  0.82830808    -0.41000
C2218       C  0.86504632  0.67436698  0.83027890     0.32400
C2219       C  0.89166820  0.61754207  0.87804639     0.01000
F2220       F  0.82538346  0.61168883  0.87111413    -0.13300
F2221       F  0.87858124  0.69435483  0.81587652    -0.13800
C2222       C  0.90843204  0.62286430  0.91167765     0.16000
C2223       C  0.92785066  0.60576839  0.92865753     0.25400
C2224       C  0.93072102  0.58286404  0.91233533    -0.40900
C2225       C  0.91420617  0.57784768  0.87806416     0.32300
C2226       C  0.89480970  0.59499312  0.86127620     0.14000
F2227       F  0.90523385  0.64447883  0.92870467    -0.13300
F2228       F  0.91687767  0.55637236  0.86046859    -0.13800
F2229       F  0.94295481  0.61150290  0.96173032    -0.16100
F2230       F  0.87924020  0.58964353  0.82835139    -0.14600
F2231       F  0.91585630  0.66047798  0.84762342    -0.14600
F2232       F  0.78757226  0.64614915  0.84111110    -0.16100
C2233       C  0.58750009  0.88268151  0.89168391     0.14000
C2234       C  0.61937290  0.88736853  0.88378108     0.01000
C2235       C  0.63191682  0.90972794  0.89329795     0.15900
C2236       C  0.61294654  0.92714891  0.91009384     0.25400
C2237       C  0.58113517  0.92237898  0.91866742    -0.41000
C2238       C  0.56867712  0.89987856  0.90949158     0.32400
C2239       C  0.63969759  0.86875300  0.86654452     0.01000
F2240       F  0.66284850  0.91450268  0.88733578    -0.13300
F2241       F  0.53809287  0.89467418  0.91689342    -0.13800
C2242       C  0.65681630  0.87325909  0.83278422     0.16000
C2243       C  0.67591971  0.85560854  0.81667191     0.25400
C2244       C  0.67797892  0.83289921  0.83374166    -0.40900
C2245       C  0.66071365  0.82850930  0.86762386     0.32300
C2246       C  0.64214902  0.84633306  0.88401253     0.14000
F2247       F  0.65445623  0.89461131  0.81481339    -0.13300
F2248       F  0.66192084  0.80702270  0.88533949    -0.13800
F2249       F  0.69156327  0.86061412  0.78365500    -0.16100
F2250       F  0.62691196  0.84179648  0.91748396    -0.14600
F2251       F  0.57445174  0.86151963  0.88160373    -0.14600
F2252       F  0.62608010  0.94848527  0.91901236    -0.16100
C2253       C  0.83343270  0.87129729  0.63693828     0.14000
C2254       C  0.86586257  0.86813100  0.63139165     0.01000
C2255       C  0.88021014  0.84701856  0.64373829     0.15900
C2256       C  0.86233855  0.82916970  0.66121019     0.25400
C2257       C  0.82975751  0.83219152  0.66663850    -0.41000
C2258       C  0.81549384  0.85345792  0.65441892     0.32400
C2259       C  0.88496035  0.88693687  0.61318756     0.01000
F2260       F  0.91170344  0.84395196  0.63956255    -0.13300
F2261       F  0.78404844  0.85669616  0.65843035    -0.13800
C2262       C  0.89008914  0.90855597  0.63230719     0.16000
C2263       C  0.90927050  0.92599886  0.61591001     0.25400
C2264       C  0.92334111  0.92222970  0.57972508    -0.40900
C2265       C  0.91765742  0.90063592  0.56034648     0.32300
C2266       C  0.89878916  0.88308551  0.57711801     0.14000
F2267       F  0.87703728  0.91254543  0.66730893    -0.13300
F2268       F  0.92960588  0.89674586  0.52473476    -0.13800
F2269       F  0.91464178  0.94634864  0.63593438    -0.16100
F2270       F  0.89358552  0.86241670  0.55792352    -0.14600
F2271       F  0.81910101  0.89152262  0.62484514    -0.14600
F2272       F  0.87706975  0.80923492  0.67384716    -0.16100
loop_ 
_geom_bond_atom_site_label_1 
_geom_bond_atom_site_label_2 
_geom_bond_distance 
_geom_bond_site_symmetry_2 
_ccdc_geom_bond_type 
O1          Zr13   2.435       .  S
O1            C3   1.288       .  A
O2        Zr1459   2.424   1_554  S
O2            C3   1.287       .  A
C3          C276   1.483       .  S
O4         Zr584   2.437       .  S
O4            C6   1.287       .  A
O5         Zr324   2.431       .  S
O5            C6   1.288       .  A
C6          C236   1.490       .  S
O7          Zr16   2.437       .  S
O7            C9   1.287       .  A
O8        Zr1175   2.413       .  S
O8            C9   1.285       .  A
C9          C216   1.472       .  S
O10        Zr581   2.441       .  S
O10          C12   1.288       .  A
O11         Zr40   2.417   1_554  S
O11          C12   1.285       .  A
C12         C196   1.479       .  S
Zr13        O578   2.439       .  S
Zr13         O14   2.434       .  S
Zr13        O583   2.434       .  S
Zr13         O19   2.366   1_554  S
Zr13        O588   2.368   1_554  S
Zr13        O611   2.368       .  S
Zr13       O1181   2.370       .  S
O14          H57   0.990       .  S
O15        Zr581   2.434       .  S
O15         H624   0.990       .  S
O15         H628   0.990       .  S
Zr16        O572   2.440       .  S
Zr16         O17   2.437       .  S
Zr16        O586   2.435       .  S
Zr16        O872   2.368       .  S
Zr16        O303   2.368       .  S
Zr16       O1180   2.367       .  S
Zr16        O614   2.371       .  S
O17          H61   0.990       .  S
O17         H626   0.990       .  S
O18        Zr584   2.434       .  S
O18         H619   0.990       .  S
O19        Zr300   2.364       .  S
O19       Zr1459   2.374       .  S
O20         Zr40   2.379       .  S
O20        Zr581   2.366   1_556  S
O20        Zr868   2.363       .  S
O20         H331   0.966       .  S
O21         Zr33   2.441       .  S
O21          C23   1.288       .  A
O22       Zr1176   2.415   1_554  S
O22          C23   1.286       .  A
C23         C129   1.472       .  S
O24        Zr604   2.425       .  S
O24          C26   1.285       .  A
O25         Zr39   2.427       .  S
O25          C26   1.287       .  A
C26         C249   1.487       .  S
O27         Zr36   2.436       .  S
O27          C29   1.287       .  A
O28       Zr1460   2.419       .  S
O28          C29   1.286       .  A
C29         C156   1.483       .  S
O30        Zr601   2.431       .  S
O30          C32   1.286       .  A
O31        Zr323   2.422   1_554  S
O31          C32   1.286       .  A
C32         C176   1.481       .  S
Zr33        O598   2.442   1_545  S
Zr33         O34   2.436       .  S
Zr33         O35   2.434   1_545  S
Zr33        O325   2.369       .  S
Zr33        O894   2.370   1_545  S
Zr33        O613   2.368   1_545  S
Zr33       O1179   2.375       .  S
O34          H54   0.990       .  S
O34          H59   0.990       .  S
O35          H55   0.990   1_565  S
Zr36        O592   2.438   1_545  S
Zr36         O37   2.434       .  S
Zr36         O38   2.434       .  S
Zr36         O41   2.371       .  S
Zr36        O610   2.372   1_545  S
Zr36       O1182   2.370       .  S
Zr36        O612   2.371   1_545  S
O37         H621   0.990       .  S
O38          H52   0.991       .  S
O38          H62   0.990       .  S
Zr39       O1422   2.424   1_455  S
Zr39       O1144   2.420   1_455  S
Zr39        O315   2.421       .  S
Zr39         O42   2.376       .  S
Zr39         O44   2.385       .  S
Zr39       O1439   2.377   1_455  S
Zr39        O329   2.388       .  S
Zr40        O289   2.433       .  S
Zr40       O1158   2.413   1_556  S
Zr40       O1448   2.425       .  S
Zr40         O43   2.388   1_556  S
Zr40       O1461   2.382   1_556  S
Zr40        O330   2.379       .  S
O41        Zr317   2.370       .  S
O41       Zr1460   2.385       .  S
O41         H333   0.966       .  S
O42        Zr885   2.368       .  S
O42        Zr604   2.367       .  S
O43        Zr581   2.367       .  S
O43       Zr1169   2.375       .  S
O44       Zr1152   2.367   1_455  S
O44        Zr604   2.373       .  S
O44          H48   0.966       .  S
O45       Zr1149   2.372   1_455  S
O45        Zr601   2.370       .  S
O45        Zr323   2.386   1_554  S
O45          H50   0.966       .  S
O46        Zr584   2.372       .  S
O46       Zr1172   2.371       .  S
O46        Zr324   2.380       .  S
H47         O304   0.966       .  S
H49         O325   0.966       .  S
H51         O586   0.990       .  S
H53         O605   0.990       .  S
H56         O583   0.990       .  S
H58         O585   0.990       .  S
H60         O583   0.990       .  S
O63         Zr75   2.433       .  S
O63          C65   1.287       .  A
O64        Zr101   2.425       .  S
O64          C65   1.287       .  A
C65         C209   1.487       .  S
O66         Zr78   2.431       .  S
O66          C68   1.285       .  A
O67        Zr102   2.435       .  S
O67          C68   1.289       .  A
C68         C189   1.485       .  S
O69         Zr78   2.432       .  S
O69          C71   1.286       .  A
O70        Zr101   2.425       .  S
O70          C71   1.287       .  A
C71         C269   1.476       .  S
O72         Zr75   2.437       .  S
O72          C74   1.288       .  A
O73        Zr102   2.426       .  S
O73          C74   1.287       .  A
C74         C229   1.475       .  S
Zr75         O76   2.434       .  S
Zr75         O77   2.434       .  S
Zr75         O81   2.371       .  S
Zr75         O82   2.365       .  S
Zr75        O105   2.370       .  S
Zr75        O107   2.371       .  S
O76         H119   0.990       .  S
O77         H118   0.990       .  S
O77         H122   0.990       .  S
Zr78         O79   2.436       .  S
Zr78         O80   2.437       .  S
Zr78         O82   2.366       .  S
Zr78         O81   2.369       .  S
Zr78        O106   2.370       .  S
Zr78        O108   2.376       .  S
O79         H120   0.990       .  S
O79         H123   0.990       .  S
O80         H113   0.990       .  S
O81        Zr101   2.378       .  S
O82        Zr102   2.383       .  S
O82         H109   0.966       .  S
O83         Zr95   2.435       .  S
O83          C85   1.286       .  A
O84        Zr102   2.431       .  S
O84          C85   1.288       .  A
C85         C149   1.479       .  S
O86         Zr98   2.426       .  S
O86          C88   1.285       .  A
O87        Zr101   2.424       .  S
O87          C88   1.287       .  A
C88         C169   1.476       .  S
O89         Zr98   2.435       .  S
O89          C91   1.287       .  A
O90        Zr102   2.420       .  S
O90          C91   1.286       .  A
C91         C136   1.489       .  S
O92         Zr95   2.432       .  S
O92          C94   1.286       .  A
O93        Zr101   2.419       .  S
O93          C94   1.286       .  A
C94         C256   1.475       .  S
Zr95         O96   2.437       .  S
Zr95         O97   2.434       .  S
Zr95        O103   2.370       .  S
Zr95        O104   2.370       .  S
Zr95        O107   2.363       .  S
Zr95        O105   2.370       .  S
O96         H116   0.990       .  S
O96         H121   0.990       .  S
O97         H117   0.990       .  S
Zr98         O99   2.434       .  S
Zr98        O100   2.435       .  S
Zr98        O104   2.366       .  S
Zr98        O103   2.365       .  S
Zr98        O108   2.372       .  S
Zr98        O106   2.371       .  S
O99         H115   0.990       .  S
O100        H114   0.990       .  S
O100        H124   0.990       .  S
Zr101       O104   2.374       .  S
Zr101       O106   2.386       .  S
Zr101       O107   2.385       .  S
Zr102       O103   2.383       .  S
Zr102       O105   2.384       .  S
Zr102       O108   2.388       .  S
O103        H111   0.966       .  S
O106        H110   0.966       .  S
O107        H112   0.966       .  S
C125        C126   1.407       .  A
C125        C130   1.399       .  A
C125        F143   1.358       .  S
C126        C131   1.481       .  S
C126        C127   1.406       .  A
C127        C128   1.395       .  A
C127        F132   1.358       .  S
C128        C129   1.406       .  A
C128        F144   1.358       .  S
C129        C130   1.406       .  A
C130        F133   1.358       .  S
C131        C134   1.405       .  A
C131        C138   1.403       .  A
C134        C135   1.398       .  A
C134        F139   1.358       .  S
C135        C136   1.413       .  A
C135        F141   1.358       .  S
C136        C137   1.413       .  A
C137        C138   1.395       .  A
C137        F140   1.358       .  S
C138        F142   1.358       .  S
C145        C146   1.404       .  A
C145        C150   1.398       .  A
C145        F163   1.358       .  S
C146        C151   1.477       .  S
C146        C147   1.403       .  A
C147        C148   1.398       .  A
C147        F152   1.358       .  S
C148        C149   1.409       .  A
C148        F164   1.358       .  S
C149        C150   1.408       .  A
C150        F153   1.358       .  S
C151        C154   1.402       .  A
C151        C158   1.404       .  A
C154        C155   1.395       .  A
C154        F159   1.358       .  S
C155        C156   1.411       .  A
C155        F161   1.358       .  S
C156        C157   1.410       .  A
C157        C158   1.399       .  A
C157        F160   1.358       .  S
C158        F162   1.358       .  S
C165        C166   1.402       .  A
C165        C170   1.395       .  A
C165        F183   1.358       .  S
C166        C171   1.474       .  S
C166        C167   1.405       .  A
C167        C168   1.397       .  A
C167        F172   1.358       .  S
C168        C169   1.406       .  A
C168        F184   1.356       .  S
C169        C170   1.409       .  A
C170        F173   1.358       .  S
C171        C174   1.401       .  A
C171        C178   1.404       .  A
C174        C175   1.394       .  A
C174        F179   1.358       .  S
C175        C176   1.411       .  A
C175        F181   1.358       .  S
C176        C177   1.410       .  A
C177        C178   1.399       .  A
C177        F180   1.358       .  S
C178        F182   1.358       .  S
C185        C186   1.403       .  A
C185        C190   1.398       .  A
C185        F203   1.358       .  S
C186        C191   1.479       .  S
C186        C187   1.405       .  A
C187        C188   1.398       .  A
C187        F192   1.358       .  S
C188        C189   1.409       .  A
C188        F204   1.358       .  S
C189        C190   1.413       .  A
C190        F193   1.358       .  S
C191        C194   1.406       .  A
C191        C198   1.403       .  A
C194        C195   1.400       .  A
C194        F199   1.358       .  S
C195        C196   1.409       .  A
C195        F201   1.358       .  S
C196        C197   1.409       .  A
C197        C198   1.395       .  A
C197        F200   1.358       .  S
C198        F202   1.358       .  S
C205        C206   1.404       .  A
C205        C210   1.397       .  A
C205        F223   1.358       .  S
C206        C211   1.479       .  S
C206        C207   1.403       .  A
C207        C208   1.397       .  A
C207        F212   1.358       .  S
C208        C209   1.414       .  A
C208        F224   1.358       .  S
C209        C210   1.411       .  A
C210        F213   1.358       .  S
C211        C214   1.405       .  A
C211        C218   1.406       .  A
C214        C215   1.396       .  A
C214        F219   1.358       .  S
C215        C216   1.407       .  A
C215        F221   1.358       .  S
C216        C217   1.406       .  A
C217        C218   1.397       .  A
C217        F220   1.358       .  S
C218        F222   1.358       .  S
C225        C226   1.403       .  A
C225        C230   1.396       .  A
C225        F243   1.358       .  S
C226        C231   1.478       .  S
C226        C227   1.407       .  A
C227        C228   1.401       .  A
C227        F232   1.358       .  S
C228        C229   1.406       .  A
C228        F244   1.358       .  S
C229        C230   1.407       .  A
C230        F233   1.358       .  S
C231        C234   1.404       .  A
C231        C238   1.401       .  A
C234        C235   1.401       .  A
C234        F239   1.358       .  S
C235        C236   1.412       .  A
C235        F241   1.358       .  S
C236        C237   1.414       .  A
C237        C238   1.397       .  A
C237        F240   1.358       .  S
C238        F242   1.358       .  S
C245        C246   1.406       .  A
C245        C250   1.399       .  A
C245        F263   1.358       .  S
C246        C251   1.480       .  S
C246        C247   1.402       .  A
C247        C248   1.393       .  A
C247        F252   1.358       .  S
C248        C249   1.414       .  A
C248        F264   1.358       .  S
C249        C250   1.411       .  A
C250        F253   1.358       .  S
C251        C254   1.407       .  A
C251        C258   1.405       .  A
C254        C255   1.397       .  A
C254        F259   1.358       .  S
C255        C256   1.407       .  A
C255        F261   1.358       .  S
C256        C257   1.407       .  A
C257        C258   1.396       .  A
C257        F260   1.358       .  S
C258        F262   1.358       .  S
C265        C266   1.405       .  A
C265        C270   1.398       .  A
C265        F283   1.358       .  S
C266        C271   1.478       .  S
C266        C267   1.404       .  A
C267        C268   1.397       .  A
C267        F272   1.358       .  S
C268        C269   1.408       .  A
C268        F284   1.358       .  S
C269        C270   1.406       .  A
C270        F273   1.356       .  S
C271        C274   1.402       .  A
C271        C278   1.405       .  A
C274        C275   1.395       .  A
C274        F279   1.358       .  S
C275        C276   1.410       .  A
C275        F281   1.358       .  S
C276        C277   1.411       .  A
C277        C278   1.400       .  A
C277        F280   1.358       .  S
C278        F282   1.358       .  S
O285       Zr297   2.432       .  S
O285        C287   1.286       .  A
O286      Zr1175   2.426       .  S
O286        C287   1.287       .  A
C287        C560   1.484       .  S
O288       Zr868   2.435       .  S
O288        C290   1.286       .  A
O289        C290   1.288       .  A
C290        C520   1.490       .  S
O291       Zr300   2.440       .  S
O291        C293   1.288       .  A
O292      Zr1459   2.411       .  S
O292        C293   1.284       .  A
C293        C500   1.473       .  S
O294       Zr865   2.445       .  S
O294        C296   1.289       .  A
O295       Zr324   2.416       .  S
O295        C296   1.285       .  A
C296        C480   1.480       .  S
Zr297       O862   2.434       .  S
Zr297       O298   2.433       .  S
Zr297       O867   2.434       .  S
Zr297       O303   2.365       .  S
Zr297       O872   2.369       .  S
Zr297       O895   2.369       .  S
Zr297      O1465   2.372       .  S
O298        H341   0.990       .  S
O299       Zr865   2.434       .  S
O299        H908   0.990       .  S
O299        H912   0.990       .  S
Zr300       O856   2.439       .  S
Zr300       O301   2.437       .  S
Zr300       O870   2.435       .  S
Zr300       O588   2.367       .  S
Zr300      O1464   2.367       .  S
Zr300       O898   2.375       .  S
O301        H910   0.990       .  S
O301        H345   0.990       .  S
O302       Zr868   2.434       .  S
O302        H903   0.990       .  S
O303      Zr1175   2.375       .  S
O304       Zr865   2.367       .  S
O304       Zr584   2.362       .  S
O304       Zr324   2.380       .  S
O305       Zr317   2.444       .  S
O305        C307   1.288       .  A
O306      Zr1460   2.411       .  S
O306        C307   1.285       .  A
C307        C413   1.472       .  S
O308       Zr888   2.427       .  S
O308        C310   1.286       .  A
O309       Zr323   2.426       .  S
O309        C310   1.287       .  A
C310        C533   1.483       .  S
O311       Zr320   2.433       .  S
O311        C313   1.287       .  A
O312      Zr1176   2.424       .  S
O312        C313   1.287       .  A
C313        C440   1.484       .  S
O314       Zr885   2.427       .  S
O314        C316   1.286       .  A
O315        C316   1.286       .  A
C316        C460   1.480       .  S
Zr317       O882   2.446   1_545  S
Zr317       O318   2.436       .  S
Zr317       O319   2.434   1_545  S
Zr317       O610   2.370   1_545  S
Zr317       O897   2.369   1_545  S
Zr317      O1463   2.375       .  S
O318        H338   0.990       .  S
O318        H343   0.990       .  S
O319        H339   0.990   1_565  S
Zr320       O876   2.432   1_545  S
Zr320       O321   2.434       .  S
Zr320       O322   2.434       .  S
Zr320       O894   2.370   1_546  S
Zr320       O325   2.370   1_556  S
Zr320      O1466   2.372       .  S
Zr320       O896   2.369   1_545  S
O321        H905   0.990       .  S
O322        H336   0.990       .  S
O322        H346   0.990       .  S
Zr323      O1138   2.428   1_456  S
Zr323      O1428   2.413   1_455  S
Zr323      O1155   2.376   1_455  S
Zr323       O326   2.375   1_556  S
Zr323       O328   2.386       .  S
Zr324      O1442   2.416       .  S
Zr324      O1164   2.420       .  S
Zr324      O1177   2.384       .  S
Zr324       O327   2.384       .  S
O325      Zr1176   2.386   1_554  S
O326       Zr601   2.369       .  S
O326       Zr888   2.369   1_554  S
O327       Zr865   2.367       .  S
O327      Zr1453   2.372       .  S
O328      Zr1436   2.368   1_455  S
O328       Zr888   2.374       .  S
O328        H332   0.966       .  S
O329      Zr1433   2.372   1_455  S
O329       Zr885   2.369       .  S
O329        H334   0.966       .  S
O330       Zr868   2.372       .  S
O330      Zr1456   2.372       .  S
H335        O870   0.990       .  S
H337        O889   0.990       .  S
H340        O867   0.990       .  S
H342        O869   0.990       .  S
H344        O867   0.990       .  S
O347       Zr359   2.432       .  S
O347        C349   1.287       .  A
O348       Zr385   2.424       .  S
O348        C349   1.287       .  A
C349        C493   1.487       .  S
O350       Zr362   2.430       .  S
O350        C352   1.285       .  A
O351       Zr386   2.437       .  S
O351        C352   1.289       .  A
C352        C473   1.483       .  S
O353       Zr362   2.432       .  S
O353        C355   1.286       .  A
O354       Zr385   2.423       .  S
O354        C355   1.287       .  A
C355        C553   1.475       .  S
O356       Zr359   2.438       .  S
O356        C358   1.288       .  A
O357       Zr386   2.421       .  S
O357        C358   1.286       .  A
C358        C513   1.475       .  S
Zr359       O360   2.434       .  S
Zr359       O361   2.434       .  S
Zr359       O365   2.372       .  S
Zr359       O366   2.365       .  S
Zr359       O389   2.367       .  S
Zr359       O391   2.371       .  S
O360        H403   0.990       .  S
O361        H402   0.990       .  S
O361        H406   0.990       .  S
Zr362       O363   2.437       .  S
Zr362       O364   2.434       .  S
Zr362       O366   2.364       .  S
Zr362       O365   2.367       .  S
Zr362       O390   2.371       .  S
Zr362       O392   2.376       .  S
O363        H404   0.990       .  S
O363        H407   0.990       .  S
O364        H397   0.990       .  S
O365       Zr385   2.380       .  S
O366       Zr386   2.382       .  S
O366        H393   0.966       .  S
O367       Zr379   2.434       .  S
O367        C369   1.286       .  A
O368       Zr386   2.424       .  S
O368        C369   1.287       .  A
C369        C433   1.478       .  S
O370       Zr382   2.426       .  S
O370        C372   1.285       .  A
O371       Zr385   2.431       .  S
O371        C372   1.288       .  A
C372        C453   1.479       .  S
O373       Zr382   2.434       .  S
O373        C375   1.287       .  A
O374       Zr386   2.420       .  S
O374        C375   1.286       .  A
C375        C420   1.488       .  S
O376       Zr379   2.429       .  S
O376        C378   1.286       .  A
O377       Zr385   2.417       .  S
O377        C378   1.285       .  A
C378        C540   1.474       .  S
Zr379       O380   2.437       .  S
Zr379       O381   2.434       .  S
Zr379       O387   2.368       .  S
Zr379       O388   2.369       .  S
Zr379       O391   2.364       .  S
Zr379       O389   2.370       .  S
O380        H400   0.990       .  S
O380        H405   0.990       .  S
O381        H401   0.990       .  S
Zr382       O383   2.434       .  S
Zr382       O384   2.434       .  S
Zr382       O388   2.364       .  S
Zr382       O387   2.363       .  S
Zr382       O392   2.372       .  S
Zr382       O390   2.372       .  S
O383        H399   0.990       .  S
O384        H398   0.990       .  S
O384        H408   0.990       .  S
Zr385       O388   2.374       .  S
Zr385       O390   2.384       .  S
Zr385       O391   2.387       .  S
Zr386       O387   2.382       .  S
Zr386       O389   2.384       .  S
Zr386       O392   2.384       .  S
O387        H395   0.966       .  S
O390        H394   0.966       .  S
O391        H396   0.966       .  S
C409        C410   1.406       .  A
C409        C414   1.398       .  A
C409        F427   1.358       .  S
C410        C415   1.478       .  S
C410        C411   1.405       .  A
C411        C412   1.394       .  A
C411        F416   1.358       .  S
C412        C413   1.407       .  A
C412        F428   1.359       .  S
C413        C414   1.406       .  A
C414        F417   1.358       .  S
C415        C418   1.404       .  A
C415        C422   1.403       .  A
C418        C419   1.397       .  A
C418        F423   1.358       .  S
C419        C420   1.413       .  A
C419        F425   1.358       .  S
C420        C421   1.414       .  A
C421        C422   1.395       .  A
C421        F424   1.358       .  S
C422        F426   1.358       .  S
C429        C430   1.404       .  A
C429        C434   1.396       .  A
C429        F447   1.358       .  S
C430        C435   1.478       .  S
C430        C431   1.404       .  A
C431        C432   1.398       .  A
C431        F436   1.358       .  S
C432        C433   1.409       .  A
C432        F448   1.358       .  S
C433        C434   1.408       .  A
C434        F437   1.358       .  S
C435        C438   1.403       .  A
C435        C442   1.404       .  A
C438        C439   1.395       .  A
C438        F443   1.358       .  S
C439        C440   1.412       .  A
C439        F445   1.358       .  S
C440        C441   1.410       .  A
C441        C442   1.398       .  A
C441        F444   1.358       .  S
C442        F446   1.358       .  S
C449        C450   1.402       .  A
C449        C454   1.396       .  A
C449        F467   1.358       .  S
C450        C455   1.476       .  S
C450        C451   1.405       .  A
C451        C452   1.398       .  A
C451        F456   1.358       .  S
C452        C453   1.407       .  A
C452        F468   1.356       .  S
C453        C454   1.410       .  A
C454        F457   1.358       .  S
C455        C458   1.402       .  A
C455        C462   1.405       .  A
C458        C459   1.394       .  A
C458        F463   1.358       .  S
C459        C460   1.410       .  A
C459        F465   1.358       .  S
C460        C461   1.409       .  A
C461        C462   1.398       .  A
C461        F464   1.358       .  S
C462        F466   1.358       .  S
C469        C470   1.402       .  A
C469        C474   1.399       .  A
C469        F487   1.358       .  S
C470        C475   1.478       .  S
C470        C471   1.405       .  A
C471        C472   1.398       .  A
C471        F476   1.358       .  S
C472        C473   1.408       .  A
C472        F488   1.358       .  S
C473        C474   1.412       .  A
C474        F477   1.358       .  S
C475        C478   1.406       .  A
C475        C482   1.402       .  A
C478        C479   1.401       .  A
C478        F483   1.358       .  S
C479        C480   1.410       .  A
C479        F485   1.358       .  S
C480        C481   1.409       .  A
C481        C482   1.395       .  A
C481        F484   1.358       .  S
C482        F486   1.358       .  S
C489        C490   1.405       .  A
C489        C494   1.397       .  A
C489        F507   1.358       .  S
C490        C495   1.479       .  S
C490        C491   1.403       .  A
C491        C492   1.396       .  A
C491        F496   1.358       .  S
C492        C493   1.414       .  A
C492        F508   1.358       .  S
C493        C494   1.411       .  A
C494        F497   1.358       .  S
C495        C498   1.405       .  A
C495        C502   1.407       .  A
C498        C499   1.396       .  A
C498        F503   1.358       .  S
C499        C500   1.406       .  A
C499        F505   1.358       .  S
C500        C501   1.406       .  A
C501        C502   1.397       .  A
C501        F504   1.358       .  S
C502        F506   1.358       .  S
C509        C510   1.403       .  A
C509        C514   1.395       .  A
C509        F527   1.358       .  S
C510        C515   1.480       .  S
C510        C511   1.407       .  A
C511        C512   1.401       .  A
C511        F516   1.358       .  S
C512        C513   1.407       .  A
C512        F528   1.358       .  S
C513        C514   1.407       .  A
C514        F517   1.358       .  S
C515        C518   1.405       .  A
C515        C522   1.401       .  A
C518        C519   1.400       .  A
C518        F523   1.358       .  S
C519        C520   1.412       .  A
C519        F525   1.358       .  S
C520        C521   1.414       .  A
C521        C522   1.397       .  A
C521        F524   1.358       .  S
C522        F526   1.358       .  S
C529        C530   1.405       .  A
C529        C534   1.398       .  A
C529        F547   1.358       .  S
C530        C535   1.477       .  S
C530        C531   1.402       .  A
C531        C532   1.394       .  A
C531        F536   1.358       .  S
C532        C533   1.412       .  A
C532        F548   1.358       .  S
C533        C534   1.410       .  A
C534        F537   1.358       .  S
C535        C538   1.405       .  A
C535        C542   1.404       .  A
C538        C539   1.396       .  A
C538        F543   1.358       .  S
C539        C540   1.407       .  A
C539        F545   1.358       .  S
C540        C541   1.408       .  A
C541        C542   1.395       .  A
C541        F544   1.358       .  S
C542        F546   1.358       .  S
C549        C550   1.405       .  A
C549        C554   1.397       .  A
C549        F567   1.358       .  S
C550        C555   1.477       .  S
C550        C551   1.404       .  A
C551        C552   1.397       .  A
C551        F556   1.358       .  S
C552        C553   1.408       .  A
C552        F568   1.358       .  S
C553        C554   1.405       .  A
C554        F557   1.356       .  S
C555        C558   1.402       .  A
C555        C562   1.404       .  A
C558        C559   1.396       .  A
C558        F563   1.358       .  S
C559        C560   1.411       .  A
C559        F565   1.358       .  S
C560        C561   1.411       .  A
C561        C562   1.399       .  A
C561        F564   1.358       .  S
C562        F566   1.358       .  S
O569       Zr581   2.432   1_565  S
O569        C571   1.287       .  A
O570      Zr2027   2.422   1_554  S
O570        C571   1.287       .  A
C571        C844   1.478       .  S
O572        C574   1.287       .  A
O573       Zr892   2.430       .  S
O573        C574   1.288       .  A
C574        C804   1.488       .  S
O575       Zr584   2.427   1_565  S
O575        C577   1.285       .  A
O576      Zr1743   2.425       .  S
O576        C577   1.287       .  A
C577        C784   1.473       .  S
O578        C580   1.288       .  A
O579       Zr608   2.423   1_554  S
O579        C580   1.286       .  A
C580        C764   1.482       .  S
Zr581       O582   2.434       .  S
Zr581       O587   2.368   1_544  S
Zr581      O1749   2.372   1_545  S
O582        H625   0.990       .  S
Zr584       O585   2.437       .  S
Zr584       O871   2.367   1_545  S
Zr584      O1748   2.375   1_545  S
O585        H629   0.990       .  S
O587       Zr868   2.367   1_565  S
O587      Zr2027   2.379       .  S
O588       Zr608   2.383       .  S
O588        H899   0.966       .  S
O589       Zr601   2.440       .  S
O589        C591   1.287       .  A
O590      Zr1744   2.427       .  S
O590        C591   1.288       .  A
C591        C697   1.477       .  S
O592        C594   1.288       .  A
O593       Zr607   2.429       .  S
O593        C594   1.288       .  A
C594        C817   1.484       .  S
O595       Zr604   2.435       .  S
O595        C597   1.287       .  A
O596      Zr2028   2.428       .  S
O596        C597   1.288       .  A
C597        C724   1.484       .  S
O598        C600   1.289       .  A
O599       Zr891   2.429   1_554  S
O599        C600   1.288       .  A
C600        C744   1.487       .  S
Zr601       O602   2.437       .  S
Zr601       O603   2.435       .  S
Zr601       O893   2.368       .  S
Zr601      O1747   2.373       .  S
O602        H622   0.990       .  S
O602        H627   0.990       .  S
O603        H623   0.990       .  S
Zr604       O605   2.434       .  S
Zr604       O606   2.434       .  S
Zr604       O609   2.368       .  S
Zr604      O1750   2.369       .  S
O606        H620   0.990       .  S
O606        H630   0.990       .  S
Zr607      O1990   2.431   1_455  S
Zr607      O1712   2.424   1_455  S
Zr607       O883   2.432       .  S
Zr607      O2007   2.378   1_455  S
Zr607       O610   2.380       .  S
Zr607       O612   2.388       .  S
Zr607       O897   2.388       .  S
Zr608       O857   2.423       .  S
Zr608      O1726   2.429   1_556  S
Zr608      O2016   2.422       .  S
Zr608      O2029   2.379   1_556  S
Zr608       O611   2.383   1_556  S
Zr608       O898   2.385       .  S
O609       Zr885   2.369       .  S
O609      Zr2028   2.382       .  S
O609        H901   0.966       .  S
O611      Zr1737   2.374       .  S
O612      Zr1720   2.372   1_465  S
O612        H616   0.966       .  S
O613      Zr1717   2.371   1_465  S
O613       Zr891   2.386   1_554  S
O613        H618   0.966       .  S
O614      Zr1740   2.368       .  S
O614       Zr892   2.383       .  S
H615        O872   0.966       .  S
H617        O893   0.966       .  S
O631       Zr643   2.437       .  S
O631        C633   1.288       .  A
O632       Zr669   2.419       .  S
O632        C633   1.286       .  A
C633        C777   1.485       .  S
O634       Zr646   2.439       .  S
O634        C636   1.287       .  A
O635       Zr670   2.423       .  S
O635        C636   1.287       .  A
C636        C757   1.482       .  S
O637       Zr646   2.440       .  S
O637        C639   1.288       .  A
O638       Zr669   2.426       .  S
O638        C639   1.287       .  A
C639        C837   1.480       .  S
O640       Zr643   2.435       .  S
O640        C642   1.287       .  A
O641       Zr670   2.433       .  S
O641        C642   1.288       .  A
C642        C797   1.478       .  S
Zr643       O644   2.435       .  S
Zr643       O645   2.434       .  S
Zr643       O649   2.371       .  S
Zr643       O650   2.369       .  S
Zr643       O673   2.373       .  S
Zr643       O675   2.370       .  S
O644        H687   0.990       .  S
O645        H686   0.990       .  S
O645        H690   0.990       .  S
Zr646       O647   2.437       .  S
Zr646       O648   2.434       .  S
Zr646       O650   2.366       .  S
Zr646       O649   2.370       .  S
Zr646       O674   2.373       .  S
Zr646       O676   2.376       .  S
O647        H688   0.990       .  S
O647        H691   0.990       .  S
O648        H681   0.990       .  S
O649       Zr669   2.381       .  S
O650       Zr670   2.385       .  S
O650        H677   0.966       .  S
O651       Zr663   2.444       .  S
O651        C653   1.288       .  A
O652       Zr670   2.425       .  S
O652        C653   1.287       .  A
C653        C717   1.479       .  S
O654       Zr666   2.439       .  S
O654        C656   1.288       .  A
O655       Zr669   2.426       .  S
O655        C656   1.287       .  A
C656        C737   1.480       .  S
O657       Zr666   2.435       .  S
O657        C659   1.287       .  A
O658       Zr670   2.428       .  S
O658        C659   1.288       .  A
C659        C704   1.491       .  S
O660       Zr663   2.434       .  S
O660        C662   1.287       .  A
O661       Zr669   2.423       .  S
O661        C662   1.287       .  A
C662        C824   1.484       .  S
Zr663       O664   2.436       .  S
Zr663       O665   2.434       .  S
Zr663       O671   2.362       .  S
Zr663       O672   2.370       .  S
Zr663       O675   2.370       .  S
Zr663       O673   2.373       .  S
O664        H684   0.990       .  S
O664        H689   0.990       .  S
O665        H685   0.990       .  S
Zr666       O667   2.434       .  S
Zr666       O668   2.435       .  S
Zr666       O672   2.366       .  S
Zr666       O671   2.367       .  S
Zr666       O676   2.374       .  S
Zr666       O674   2.370       .  S
O667        H683   0.990       .  S
O668        H682   0.990       .  S
O668        H692   0.990       .  S
Zr669       O672   2.376       .  S
Zr669       O674   2.384       .  S
Zr669       O675   2.387       .  S
Zr670       O671   2.381       .  S
Zr670       O673   2.384       .  S
Zr670       O676   2.386       .  S
O671        H679   0.966       .  S
O674        H678   0.966       .  S
O675        H680   0.966       .  S
C693        C694   1.407       .  A
C693        C698   1.401       .  A
C693        F711   1.358       .  S
C694        C699   1.482       .  S
C694        C695   1.405       .  A
C695        C696   1.396       .  A
C695        F700   1.358       .  S
C696        C697   1.406       .  A
C696        F712   1.358       .  S
C697        C698   1.408       .  A
C698        F701   1.358       .  S
C699        C702   1.404       .  A
C699        C706   1.403       .  A
C702        C703   1.400       .  A
C702        F707   1.358       .  S
C703        C704   1.412       .  A
C703        F709   1.358       .  S
C704        C705   1.414       .  A
C705        C706   1.397       .  A
C705        F708   1.358       .  S
C706        F710   1.358       .  S
C713        C714   1.404       .  A
C713        C718   1.400       .  A
C713        F731   1.358       .  S
C714        C719   1.477       .  S
C714        C715   1.402       .  A
C715        C716   1.398       .  A
C715        F720   1.358       .  S
C716        C717   1.408       .  A
C716        F732   1.358       .  S
C717        C718   1.409       .  A
C718        F721   1.358       .  S
C719        C722   1.401       .  A
C719        C726   1.404       .  A
C722        C723   1.397       .  A
C722        F727   1.358       .  S
C723        C724   1.412       .  A
C723        F729   1.358       .  S
C724        C725   1.410       .  A
C725        C726   1.400       .  A
C725        F728   1.358       .  S
C726        F730   1.358       .  S
C733        C734   1.402       .  A
C733        C738   1.398       .  A
C733        F751   1.358       .  S
C734        C739   1.478       .  S
C734        C735   1.404       .  A
C735        C736   1.400       .  A
C735        F740   1.358       .  S
C736        C737   1.407       .  A
C736        F752   1.357       .  S
C737        C738   1.409       .  A
C738        F741   1.358       .  S
C739        C742   1.402       .  A
C739        C746   1.403       .  A
C742        C743   1.399       .  A
C742        F747   1.358       .  S
C743        C744   1.411       .  A
C743        F749   1.358       .  S
C744        C745   1.411       .  A
C745        C746   1.401       .  A
C745        F748   1.358       .  S
C746        F750   1.358       .  S
C753        C754   1.404       .  A
C753        C758   1.398       .  A
C753        F771   1.358       .  S
C754        C759   1.479       .  S
C754        C755   1.404       .  A
C755        C756   1.397       .  A
C755        F760   1.358       .  S
C756        C757   1.409       .  A
C756        F772   1.358       .  S
C757        C758   1.411       .  A
C758        F761   1.358       .  S
C759        C762   1.405       .  A
C759        C766   1.402       .  A
C762        C763   1.400       .  A
C762        F767   1.358       .  S
C763        C764   1.409       .  A
C763        F769   1.358       .  S
C764        C765   1.410       .  A
C765        C766   1.395       .  A
C765        F768   1.358       .  S
C766        F770   1.358       .  S
C773        C774   1.404       .  A
C773        C778   1.398       .  A
C773        F791   1.358       .  S
C774        C779   1.477       .  S
C774        C775   1.402       .  A
C775        C776   1.396       .  A
C775        F780   1.358       .  S
C776        C777   1.412       .  A
C776        F792   1.358       .  S
C777        C778   1.412       .  A
C778        F781   1.358       .  S
C779        C782   1.404       .  A
C779        C786   1.405       .  A
C782        C783   1.396       .  A
C782        F787   1.358       .  S
C783        C784   1.409       .  A
C783        F789   1.358       .  S
C784        C785   1.405       .  A
C785        C786   1.397       .  A
C785        F788   1.357       .  S
C786        F790   1.358       .  S
C793        C794   1.402       .  A
C793        C798   1.397       .  A
C793        F811   1.358       .  S
C794        C799   1.478       .  S
C794        C795   1.406       .  A
C795        C796   1.401       .  A
C795        F800   1.358       .  S
C796        C797   1.407       .  A
C796        F812   1.358       .  S
C797        C798   1.409       .  A
C798        F801   1.358       .  S
C799        C802   1.403       .  A
C799        C806   1.402       .  A
C802        C803   1.399       .  A
C802        F807   1.358       .  S
C803        C804   1.411       .  A
C803        F809   1.358       .  S
C804        C805   1.413       .  A
C805        C806   1.399       .  A
C805        F808   1.358       .  S
C806        F810   1.358       .  S
C813        C814   1.405       .  A
C813        C818   1.400       .  A
C813        F831   1.358       .  S
C814        C819   1.480       .  S
C814        C815   1.403       .  A
C815        C816   1.397       .  A
C815        F820   1.358       .  S
C816        C817   1.411       .  A
C816        F832   1.358       .  S
C817        C818   1.409       .  A
C818        F821   1.357       .  S
C819        C822   1.405       .  A
C819        C826   1.403       .  A
C822        C823   1.399       .  A
C822        F827   1.358       .  S
C823        C824   1.410       .  A
C823        F829   1.358       .  S
C824        C825   1.411       .  A
C825        C826   1.397       .  A
C825        F828   1.358       .  S
C826        F830   1.358       .  S
C833        C834   1.404       .  A
C833        C838   1.400       .  A
C833        F851   1.358       .  S
C834        C839   1.475       .  S
C834        C835   1.402       .  A
C835        C836   1.397       .  A
C835        F840   1.358       .  S
C836        C837   1.409       .  A
C836        F852   1.358       .  S
C837        C838   1.408       .  A
C838        F841   1.357       .  S
C839        C842   1.402       .  A
C839        C846   1.405       .  A
C842        C843   1.396       .  A
C842        F847   1.358       .  S
C843        C844   1.409       .  A
C843        F849   1.358       .  S
C844        C845   1.409       .  A
C845        C846   1.399       .  A
C845        F848   1.358       .  S
C846        F850   1.358       .  S
O853       Zr865   2.436   1_565  S
O853        C855   1.288       .  A
O854      Zr1743   2.430       .  S
O854        C855   1.288       .  A
C855       C1128   1.483       .  S
O856        C858   1.288       .  A
O857        C858   1.287       .  A
C858       C1088   1.485       .  S
O859       Zr868   2.425   1_565  S
O859        C861   1.285       .  A
O860      Zr2027   2.425       .  S
O860        C861   1.287       .  A
C861       C1068   1.474       .  S
O862        C864   1.287       .  A
O863       Zr892   2.424       .  S
O863        C864   1.287       .  A
C864       C1048   1.481       .  S
Zr865       O866   2.434       .  S
Zr865       O871   2.368   1_545  S
Zr865      O2033   2.374   1_545  S
O866        H909   0.990       .  S
Zr868       O869   2.437       .  S
Zr868      O2032   2.372   1_545  S
O869        H913   0.990       .  S
O871      Zr1743   2.380       .  S
O872       Zr892   2.384       .  S
O873       Zr885   2.435       .  S
O873        C875   1.286       .  A
O874      Zr2028   2.424       .  S
O874        C875   1.287       .  A
C875        C981   1.474       .  S
O876        C878   1.286       .  A
O877       Zr891   2.427       .  S
O877        C878   1.287       .  A
C878       C1101   1.481       .  S
O879       Zr888   2.436       .  S
O879        C881   1.287       .  A
O880      Zr1744   2.425   1_556  S
O880        C881   1.287       .  A
C881       C1008   1.484       .  S
O882        C884   1.289       .  A
O883        C884   1.288       .  A
C884       C1028   1.492       .  S
Zr885       O886   2.436       .  S
Zr885       O887   2.434       .  S
Zr885      O2031   2.372       .  S
O886        H906   0.990       .  S
O886        H911   0.990       .  S
O887        H907   0.990       .  S
Zr888       O889   2.434       .  S
Zr888       O890   2.436       .  S
Zr888       O893   2.368   1_556  S
Zr888      O2034   2.369       .  S
O890        H904   0.990       .  S
O890        H914   0.990       .  S
Zr891      O1706   2.425   1_456  S
Zr891      O1996   2.423   1_455  S
Zr891      O1723   2.378   1_455  S
Zr891       O894   2.378   1_556  S
Zr891       O896   2.386       .  S
Zr892      O2010   2.430       .  S
Zr892      O1732   2.426       .  S
Zr892      O1745   2.382       .  S
Zr892       O895   2.386       .  S
O893      Zr1744   2.381       .  S
O895      Zr2021   2.375       .  S
O896      Zr2004   2.372   1_465  S
O896        H900   0.966       .  S
O897      Zr2001   2.373   1_465  S
O897        H902   0.966       .  S
O898      Zr2024   2.370       .  S
O915       Zr927   2.434       .  S
O915        C917   1.287       .  A
O916       Zr953   2.420       .  S
O916        C917   1.286       .  A
C917       C1061   1.485       .  S
O918       Zr930   2.432       .  S
O918        C920   1.286       .  A
O919       Zr954   2.426       .  S
O919        C920   1.288       .  A
C920       C1041   1.481       .  S
O921       Zr930   2.432       .  S
O921        C923   1.287       .  A
O922       Zr953   2.429       .  S
O922        C923   1.288       .  A
C923       C1121   1.478       .  S
O924       Zr927   2.435       .  S
O924        C926   1.287       .  A
O925       Zr954   2.427       .  S
O925        C926   1.287       .  A
C926       C1081   1.475       .  S
Zr927       O928   2.434       .  S
Zr927       O929   2.435       .  S
Zr927       O933   2.372       .  S
Zr927       O934   2.369       .  S
Zr927       O957   2.371       .  S
Zr927       O959   2.372       .  S
O928        H971   0.990       .  S
O929        H970   0.990       .  S
O929        H974   0.990       .  S
Zr930       O931   2.436       .  S
Zr930       O932   2.435       .  S
Zr930       O934   2.366       .  S
Zr930       O933   2.367       .  S
Zr930       O958   2.370       .  S
Zr930       O960   2.374       .  S
O931        H972   0.990       .  S
O931        H975   0.990       .  S
O932        H965   0.990       .  S
O933       Zr953   2.378       .  S
O934       Zr954   2.382       .  S
O934        H961   0.966       .  S
O935       Zr947   2.440       .  S
O935        C937   1.288       .  A
O936       Zr954   2.427       .  S
O936        C937   1.287       .  A
C937       C1001   1.478       .  S
O938       Zr950   2.436       .  S
O938        C940   1.287       .  A
O939       Zr953   2.428       .  S
O939        C940   1.288       .  A
C940       C1021   1.481       .  S
O941       Zr950   2.440       .  S
O941        C943   1.288       .  A
O942       Zr954   2.418       .  S
O942        C943   1.286       .  A
C943        C988   1.489       .  S
O944       Zr947   2.434       .  S
O944        C946   1.287       .  A
O945       Zr953   2.424       .  S
O945        C946   1.287       .  A
C946       C1108   1.485       .  S
Zr947       O948   2.436       .  S
Zr947       O949   2.434       .  S
Zr947       O955   2.364       .  S
Zr947       O956   2.366       .  S
Zr947       O959   2.368       .  S
Zr947       O957   2.374       .  S
O948        H968   0.990       .  S
O948        H973   0.990       .  S
O949        H969   0.990       .  S
Zr950       O951   2.433       .  S
Zr950       O952   2.434       .  S
Zr950       O956   2.365       .  S
Zr950       O955   2.365       .  S
Zr950       O960   2.369       .  S
Zr950       O958   2.371       .  S
O951        H967   0.990       .  S
O952        H966   0.990       .  S
O952        H976   0.990       .  S
Zr953       O956   2.373       .  S
Zr953       O958   2.383       .  S
Zr953       O959   2.388       .  S
Zr954       O955   2.380       .  S
Zr954       O957   2.384       .  S
Zr954       O960   2.383       .  S
O955        H963   0.966       .  S
O958        H962   0.966       .  S
O959        H964   0.966       .  S
C977        C978   1.407       .  A
C977        C982   1.400       .  A
C977        F995   1.358       .  S
C978        C983   1.481       .  S
C978        C979   1.406       .  A
C979        C980   1.395       .  A
C979        F984   1.358       .  S
C980        C981   1.405       .  A
C980        F996   1.358       .  S
C981        C982   1.408       .  A
C982        F985   1.358       .  S
C983        C986   1.405       .  A
C983        C990   1.403       .  A
C986        C987   1.400       .  A
C986        F991   1.358       .  S
C987        C988   1.414       .  A
C987        F993   1.358       .  S
C988        C989   1.412       .  A
C989        C990   1.395       .  A
C989        F992   1.358       .  S
C990        F994   1.358       .  S
C997        C998   1.404       .  A
C997       C1002   1.399       .  A
C997       F1015   1.358       .  S
C998       C1003   1.476       .  S
C998        C999   1.403       .  A
C999       C1000   1.398       .  A
C999       F1004   1.358       .  S
C1000      C1001   1.408       .  A
C1000      F1016   1.358       .  S
C1001      C1002   1.409       .  A
C1002      F1005   1.358       .  S
C1003      C1006   1.401       .  A
C1003      C1010   1.404       .  A
C1006      C1007   1.396       .  A
C1006      F1011   1.358       .  S
C1007      C1008   1.412       .  A
C1007      F1013   1.358       .  S
C1008      C1009   1.411       .  A
C1009      C1010   1.400       .  A
C1009      F1012   1.358       .  S
C1010      F1014   1.358       .  S
C1017      C1018   1.404       .  A
C1017      C1022   1.399       .  A
C1017      F1035   1.358       .  S
C1018      C1023   1.482       .  S
C1018      C1019   1.405       .  A
C1019      C1020   1.400       .  A
C1019      F1024   1.358       .  S
C1020      C1021   1.407       .  A
C1020      F1036   1.357       .  S
C1021      C1022   1.409       .  A
C1022      F1025   1.358       .  S
C1023      C1026   1.402       .  A
C1023      C1030   1.405       .  A
C1026      C1027   1.399       .  A
C1026      F1031   1.358       .  S
C1027      C1028   1.412       .  A
C1027      F1033   1.358       .  S
C1028      C1029   1.413       .  A
C1029      C1030   1.403       .  A
C1029      F1032   1.358       .  S
C1030      F1034   1.358       .  S
C1037      C1038   1.404       .  A
C1037      C1042   1.398       .  A
C1037      F1055   1.358       .  S
C1038      C1043   1.478       .  S
C1038      C1039   1.404       .  A
C1039      C1040   1.396       .  A
C1039      F1044   1.358       .  S
C1040      C1041   1.409       .  A
C1040      F1056   1.358       .  S
C1041      C1042   1.412       .  A
C1042      F1045   1.358       .  S
C1043      C1046   1.405       .  A
C1043      C1050   1.403       .  A
C1046      C1047   1.399       .  A
C1046      F1051   1.358       .  S
C1047      C1048   1.409       .  A
C1047      F1053   1.358       .  S
C1048      C1049   1.411       .  A
C1049      C1050   1.395       .  A
C1049      F1052   1.358       .  S
C1050      F1054   1.358       .  S
C1057      C1058   1.404       .  A
C1057      C1062   1.397       .  A
C1057      F1075   1.358       .  S
C1058      C1063   1.478       .  S
C1058      C1059   1.403       .  A
C1059      C1060   1.396       .  A
C1059      F1064   1.358       .  S
C1060      C1061   1.412       .  A
C1060      F1076   1.358       .  S
C1061      C1062   1.411       .  A
C1062      F1065   1.358       .  S
C1063      C1066   1.405       .  A
C1063      C1070   1.406       .  A
C1066      C1067   1.396       .  A
C1066      F1071   1.358       .  S
C1067      C1068   1.409       .  A
C1067      F1073   1.358       .  S
C1068      C1069   1.405       .  A
C1069      C1070   1.396       .  A
C1069      F1072   1.357       .  S
C1070      F1074   1.358       .  S
C1077      C1078   1.402       .  A
C1077      C1082   1.396       .  A
C1077      F1095   1.358       .  S
C1078      C1083   1.476       .  S
C1078      C1079   1.406       .  A
C1079      C1080   1.400       .  A
C1079      F1084   1.358       .  S
C1080      C1081   1.406       .  A
C1080      F1096   1.358       .  S
C1081      C1082   1.408       .  A
C1082      F1085   1.358       .  S
C1083      C1086   1.403       .  A
C1083      C1090   1.401       .  A
C1086      C1087   1.398       .  A
C1086      F1091   1.358       .  S
C1087      C1088   1.412       .  A
C1087      F1093   1.358       .  S
C1088      C1089   1.412       .  A
C1089      C1090   1.397       .  A
C1089      F1092   1.358       .  S
C1090      F1094   1.358       .  S
C1097      C1098   1.406       .  A
C1097      C1102   1.399       .  A
C1097      F1115   1.358       .  S
C1098      C1103   1.480       .  S
C1098      C1099   1.403       .  A
C1099      C1100   1.396       .  A
C1099      F1104   1.358       .  S
C1100      C1101   1.410       .  A
C1100      F1116   1.358       .  S
C1101      C1102   1.408       .  A
C1102      F1105   1.357       .  S
C1103      C1106   1.405       .  A
C1103      C1110   1.403       .  A
C1106      C1107   1.399       .  A
C1106      F1111   1.358       .  S
C1107      C1108   1.411       .  A
C1107      F1113   1.358       .  S
C1108      C1109   1.412       .  A
C1109      C1110   1.396       .  A
C1109      F1112   1.358       .  S
C1110      F1114   1.358       .  S
C1117      C1118   1.404       .  A
C1117      C1122   1.399       .  A
C1117      F1135   1.358       .  S
C1118      C1123   1.477       .  S
C1118      C1119   1.403       .  A
C1119      C1120   1.398       .  A
C1119      F1124   1.358       .  S
C1120      C1121   1.409       .  A
C1120      F1136   1.358       .  S
C1121      C1122   1.406       .  A
C1122      F1125   1.357       .  S
C1123      C1126   1.402       .  A
C1123      C1130   1.404       .  A
C1126      C1127   1.398       .  A
C1126      F1131   1.358       .  S
C1127      C1128   1.411       .  A
C1127      F1133   1.358       .  S
C1128      C1129   1.410       .  A
C1129      C1130   1.399       .  A
C1129      F1132   1.358       .  S
C1130      F1134   1.358       .  S
O1137     Zr1149   2.435       .  S
O1137      C1139   1.287       .  A
O1138      C1139   1.287       .  A
C1139      C1412   1.485       .  S
O1140     Zr1720   2.436       .  S
O1140      C1142   1.287       .  A
O1141     Zr1460   2.433   1_655  S
O1141      C1142   1.288       .  A
C1142      C1372   1.491       .  S
O1143     Zr1152   2.437       .  S
O1143      C1145   1.287       .  A
O1144      C1145   1.286       .  A
C1145      C1352   1.475       .  S
O1146     Zr1717   2.440       .  S
O1146      C1148   1.288       .  A
O1147     Zr1176   2.424   1_654  S
O1147      C1148   1.287       .  A
C1148      C1332   1.483       .  S
Zr1149     O1714   2.438       .  S
Zr1149     O1150   2.433       .  S
Zr1149     O1719   2.435       .  S
Zr1149     O1155   2.367   1_554  S
Zr1149     O1724   2.369   1_554  S
Zr1149     O1747   2.371   1_655  S
O1150      H1193   0.990       .  S
O1151     Zr1717   2.434       .  S
O1151      H1760   0.990       .  S
O1151      H1764   0.990       .  S
Zr1152     O1708   2.435       .  S
Zr1152     O1153   2.437       .  S
Zr1152     O1722   2.434       .  S
Zr1152     O2008   2.367       .  S
Zr1152     O1439   2.368       .  S
Zr1152     O1750   2.374   1_655  S
O1153      H1762   0.990       .  S
O1153      H1197   0.990       .  S
O1154     Zr1720   2.434       .  S
O1154      H1755   0.990   1_545  S
O1155     Zr1436   2.366       .  S
O1156     Zr1717   2.367   1_556  S
O1156     Zr2004   2.365       .  S
O1156     Zr1176   2.379   1_655  S
O1156      H1467   0.966       .  S
O1157     Zr1169   2.445       .  S
O1157      C1159   1.289       .  A
O1158      C1159   1.285       .  A
C1159      C1265   1.473       .  S
O1160     Zr1740   2.425       .  S
O1160      C1162   1.285       .  A
O1161     Zr1175   2.424       .  S
O1161      C1162   1.287       .  A
C1162      C1385   1.484       .  S
O1163     Zr1172   2.438       .  S
O1163      C1165   1.287       .  A
O1164      C1165   1.286       .  A
C1165      C1292   1.484       .  S
O1166     Zr1737   2.432       .  S
O1166      C1168   1.287       .  A
O1167     Zr1459   2.422   1_554  S
O1167      C1168   1.286       .  A
C1168      C1312   1.482       .  S
Zr1169     O1734   2.444   1_545  S
Zr1169     O1170   2.436       .  S
Zr1169     O1171   2.435       .  S
Zr1169     O1461   2.369       .  S
Zr1169     O2030   2.369   1_545  S
Zr1169     O1749   2.371   1_545  S
O1170      H1190   0.990       .  S
O1170      H1195   0.990       .  S
O1171      H1191   0.990   1_545  S
Zr1172     O1728   2.439   1_545  S
Zr1172     O1173   2.434       .  S
Zr1172     O1174   2.434       .  S
Zr1172     O1746   2.372   1_545  S
Zr1172     O1177   2.371       .  S
Zr1172     O1748   2.372   1_545  S
O1173      H1757   0.990       .  S
O1174      H1188   0.991       .  S
O1174      H1198   0.990       .  S
Zr1175     O1451   2.425       .  S
Zr1175     O1178   2.376       .  S
Zr1175     O1180   2.387       .  S
Zr1175     O1465   2.385       .  S
Zr1176     O1425   2.430   1_455  S
Zr1176     O1179   2.384   1_556  S
Zr1176     O1466   2.382       .  S
O1177     Zr1453   2.370       .  S
O1177      H1469   0.966       .  S
O1178     Zr2021   2.367       .  S
O1178     Zr1740   2.368       .  S
O1179     Zr1717   2.367   1_455  S
O1180     Zr1740   2.373       .  S
O1180      H1184   0.966       .  S
O1181     Zr1737   2.370       .  S
O1181     Zr1459   2.385   1_554  S
O1181      H1186   0.966       .  S
O1182     Zr1720   2.369   1_455  S
O1182     Zr1460   2.379       .  S
H1183      O1440   0.966       .  S
H1185      O1461   0.966       .  S
H1187      O1722   0.990       .  S
H1189      O1741   0.990       .  S
H1192      O1719   0.990       .  S
H1194      O1721   0.990       .  S
H1196      O1719   0.990       .  S
O1199     Zr1211   2.433       .  S
O1199      C1201   1.287       .  A
O1200     Zr1237   2.425       .  S
O1200      C1201   1.287       .  A
C1201      C1345   1.487       .  S
O1202     Zr1214   2.434       .  S
O1202      C1204   1.286       .  A
O1203     Zr1238   2.438       .  S
O1203      C1204   1.290       .  A
C1204      C1325   1.486       .  S
O1205     Zr1214   2.431       .  S
O1205      C1207   1.286       .  A
O1206     Zr1237   2.428       .  S
O1206      C1207   1.287       .  A
C1207      C1405   1.476       .  S
O1208     Zr1211   2.438       .  S
O1208      C1210   1.288       .  A
O1209     Zr1238   2.425       .  S
O1209      C1210   1.287       .  A
C1210      C1365   1.475       .  S
Zr1211     O1212   2.434       .  S
Zr1211     O1213   2.435       .  S
Zr1211     O1217   2.371       .  S
Zr1211     O1218   2.366       .  S
Zr1211     O1241   2.369       .  S
Zr1211     O1243   2.373       .  S
O1212      H1255   0.990       .  S
O1213      H1254   0.990       .  S
O1213      H1258   0.990       .  S
Zr1214     O1215   2.437       .  S
Zr1214     O1216   2.434       .  S
Zr1214     O1218   2.366       .  S
Zr1214     O1217   2.368       .  S
Zr1214     O1242   2.369       .  S
Zr1214     O1244   2.374       .  S
O1215      H1256   0.990       .  S
O1215      H1259   0.990       .  S
O1216      H1249   0.990       .  S
O1217     Zr1237   2.378       .  S
O1218     Zr1238   2.381       .  S
O1218      H1245   0.966       .  S
O1219     Zr1231   2.428       .  S
O1219      C1221   1.285       .  A
O1220     Zr1238   2.427       .  S
O1220      C1221   1.288       .  A
C1221      C1285   1.475       .  S
O1222     Zr1234   2.429       .  S
O1222      C1224   1.286       .  A
O1223     Zr1237   2.427       .  S
O1223      C1224   1.287       .  A
C1224      C1305   1.479       .  S
O1225     Zr1234   2.429       .  S
O1225      C1227   1.286       .  A
O1226     Zr1238   2.424       .  S
O1226      C1227   1.287       .  A
C1227      C1272   1.488       .  S
O1228     Zr1231   2.430       .  S
O1228      C1230   1.286       .  A
O1229     Zr1237   2.418       .  S
O1229      C1230   1.286       .  A
C1230      C1392   1.474       .  S
Zr1231     O1232   2.438       .  S
Zr1231     O1233   2.434       .  S
Zr1231     O1239   2.368       .  S
Zr1231     O1240   2.368       .  S
Zr1231     O1243   2.364       .  S
Zr1231     O1241   2.373       .  S
O1232      H1252   0.990       .  S
O1232      H1257   0.990       .  S
O1233      H1253   0.990       .  S
Zr1234     O1235   2.435       .  S
Zr1234     O1236   2.435       .  S
Zr1234     O1240   2.364       .  S
Zr1234     O1239   2.362       .  S
Zr1234     O1244   2.373       .  S
Zr1234     O1242   2.372       .  S
O1235      H1251   0.990       .  S
O1236      H1250   0.990       .  S
O1236      H1260   0.990       .  S
Zr1237     O1240   2.375       .  S
Zr1237     O1242   2.384       .  S
Zr1237     O1243   2.388       .  S
Zr1238     O1239   2.383       .  S
Zr1238     O1241   2.386       .  S
Zr1238     O1244   2.384       .  S
O1239      H1247   0.966       .  S
O1242      H1246   0.966       .  S
O1243      H1248   0.966       .  S
C1261      C1262   1.407       .  A
C1261      C1266   1.399       .  A
C1261      F1279   1.358       .  S
C1262      C1267   1.480       .  S
C1262      C1263   1.406       .  A
C1263      C1264   1.395       .  A
C1263      F1268   1.358       .  S
C1264      C1265   1.406       .  A
C1264      F1280   1.358       .  S
C1265      C1266   1.406       .  A
C1266      F1269   1.358       .  S
C1267      C1270   1.405       .  A
C1267      C1274   1.402       .  A
C1270      C1271   1.399       .  A
C1270      F1275   1.358       .  S
C1271      C1272   1.412       .  A
C1271      F1277   1.358       .  S
C1272      C1273   1.414       .  A
C1273      C1274   1.394       .  A
C1273      F1276   1.358       .  S
C1274      F1278   1.358       .  S
C1281      C1282   1.404       .  A
C1281      C1286   1.396       .  A
C1281      F1299   1.358       .  S
C1282      C1287   1.475       .  S
C1282      C1283   1.404       .  A
C1283      C1284   1.397       .  A
C1283      F1288   1.358       .  S
C1284      C1285   1.409       .  A
C1284      F1300   1.358       .  S
C1285      C1286   1.407       .  A
C1286      F1289   1.358       .  S
C1287      C1290   1.402       .  A
C1287      C1294   1.404       .  A
C1290      C1291   1.395       .  A
C1290      F1295   1.358       .  S
C1291      C1292   1.412       .  A
C1291      F1297   1.358       .  S
C1292      C1293   1.411       .  A
C1293      C1294   1.398       .  A
C1293      F1296   1.358       .  S
C1294      F1298   1.358       .  S
C1301      C1302   1.402       .  A
C1301      C1306   1.396       .  A
C1301      F1319   1.358       .  S
C1302      C1307   1.476       .  S
C1302      C1303   1.405       .  A
C1303      C1304   1.398       .  A
C1303      F1308   1.358       .  S
C1304      C1305   1.407       .  A
C1304      F1320   1.356       .  S
C1305      C1306   1.410       .  A
C1306      F1309   1.358       .  S
C1307      C1310   1.402       .  A
C1307      C1314   1.405       .  A
C1310      C1311   1.395       .  A
C1310      F1315   1.358       .  S
C1311      C1312   1.411       .  A
C1311      F1317   1.358       .  S
C1312      C1313   1.410       .  A
C1313      C1314   1.399       .  A
C1313      F1316   1.358       .  S
C1314      F1318   1.358       .  S
C1321      C1322   1.404       .  A
C1321      C1326   1.401       .  A
C1321      F1339   1.358       .  S
C1322      C1327   1.480       .  S
C1322      C1323   1.404       .  A
C1323      C1324   1.398       .  A
C1323      F1328   1.358       .  S
C1324      C1325   1.409       .  A
C1324      F1340   1.358       .  S
C1325      C1326   1.413       .  A
C1326      F1329   1.358       .  S
C1327      C1330   1.406       .  A
C1327      C1334   1.403       .  A
C1330      C1331   1.401       .  A
C1330      F1335   1.358       .  S
C1331      C1332   1.409       .  A
C1331      F1337   1.358       .  S
C1332      C1333   1.410       .  A
C1333      C1334   1.396       .  A
C1333      F1336   1.358       .  S
C1334      F1338   1.358       .  S
C1341      C1342   1.405       .  A
C1341      C1346   1.398       .  A
C1341      F1359   1.358       .  S
C1342      C1347   1.481       .  S
C1342      C1343   1.403       .  A
C1343      C1344   1.397       .  A
C1343      F1348   1.358       .  S
C1344      C1345   1.413       .  A
C1344      F1360   1.358       .  S
C1345      C1346   1.411       .  A
C1346      F1349   1.358       .  S
C1347      C1350   1.405       .  A
C1347      C1354   1.407       .  A
C1350      C1351   1.396       .  A
C1350      F1355   1.358       .  S
C1351      C1352   1.407       .  A
C1351      F1357   1.358       .  S
C1352      C1353   1.406       .  A
C1353      C1354   1.399       .  A
C1353      F1356   1.358       .  S
C1354      F1358   1.358       .  S
C1361      C1362   1.403       .  A
C1361      C1366   1.397       .  A
C1361      F1379   1.358       .  S
C1362      C1367   1.479       .  S
C1362      C1363   1.407       .  A
C1363      C1364   1.401       .  A
C1363      F1368   1.358       .  S
C1364      C1365   1.406       .  A
C1364      F1380   1.358       .  S
C1365      C1366   1.407       .  A
C1366      F1369   1.358       .  S
C1367      C1370   1.404       .  A
C1367      C1374   1.400       .  A
C1370      C1371   1.401       .  A
C1370      F1375   1.358       .  S
C1371      C1372   1.413       .  A
C1371      F1377   1.358       .  S
C1372      C1373   1.415       .  A
C1373      C1374   1.397       .  A
C1373      F1376   1.358       .  S
C1374      F1378   1.358       .  S
C1381      C1382   1.406       .  A
C1381      C1386   1.398       .  A
C1381      F1399   1.358       .  S
C1382      C1387   1.478       .  S
C1382      C1383   1.402       .  A
C1383      C1384   1.393       .  A
C1383      F1388   1.358       .  S
C1384      C1385   1.413       .  A
C1384      F1400   1.358       .  S
C1385      C1386   1.410       .  A
C1386      F1389   1.358       .  S
C1387      C1390   1.406       .  A
C1387      C1394   1.405       .  A
C1390      C1391   1.396       .  A
C1390      F1395   1.358       .  S
C1391      C1392   1.407       .  A
C1391      F1397   1.358       .  S
C1392      C1393   1.408       .  A
C1393      C1394   1.396       .  A
C1393      F1396   1.358       .  S
C1394      F1398   1.358       .  S
C1401      C1402   1.406       .  A
C1401      C1406   1.399       .  A
C1401      F1419   1.358       .  S
C1402      C1407   1.478       .  S
C1402      C1403   1.403       .  A
C1403      C1404   1.397       .  A
C1403      F1408   1.358       .  S
C1404      C1405   1.408       .  A
C1404      F1420   1.358       .  S
C1405      C1406   1.406       .  A
C1406      F1409   1.356       .  S
C1407      C1410   1.402       .  A
C1407      C1414   1.405       .  A
C1410      C1411   1.396       .  A
C1410      F1415   1.358       .  S
C1411      C1412   1.411       .  A
C1411      F1417   1.358       .  S
C1412      C1413   1.411       .  A
C1413      C1414   1.401       .  A
C1413      F1416   1.358       .  S
C1414      F1418   1.358       .  S
O1421     Zr1433   2.435       .  S
O1421      C1423   1.287       .  A
O1422      C1423   1.287       .  A
C1423      C1696   1.482       .  S
O1424     Zr2004   2.440       .  S
O1424      C1426   1.287       .  A
O1425      C1426   1.288       .  A
C1426      C1656   1.490       .  S
O1427     Zr1436   2.439       .  S
O1427      C1429   1.288       .  A
O1428      C1429   1.284       .  A
C1429      C1636   1.474       .  S
O1430     Zr2001   2.442       .  S
O1430      C1432   1.289       .  A
O1431     Zr1460   2.416   1_655  S
O1431      C1432   1.285       .  A
C1432      C1616   1.479       .  S
Zr1433     O1998   2.438       .  S
Zr1433     O1434   2.434       .  S
Zr1433     O2003   2.436       .  S
Zr1433     O1439   2.370       .  S
Zr1433     O2008   2.369       .  S
Zr1433     O2031   2.369   1_655  S
O1434      H1477   0.990       .  S
O1435     Zr2001   2.435       .  S
O1435      H2044   0.990       .  S
O1435      H2048   0.990       .  S
Zr1436     O1992   2.440       .  S
Zr1436     O1437   2.436       .  S
Zr1436     O2006   2.434       .  S
Zr1436     O1724   2.366       .  S
Zr1436     O2034   2.373   1_655  S
O1437      H2046   0.990       .  S
O1437      H1481   0.990       .  S
O1438     Zr2004   2.435       .  S
O1438      H2039   0.990       .  S
O1440     Zr2001   2.366       .  S
O1440     Zr1720   2.364       .  S
O1440     Zr1460   2.376   1_655  S
O1441     Zr1453   2.439       .  S
O1441      C1443   1.287       .  A
O1442      C1443   1.285       .  A
C1443      C1549   1.472       .  S
O1444     Zr2024   2.424       .  S
O1444      C1446   1.285       .  A
O1445     Zr1459   2.423       .  S
O1445      C1446   1.286       .  A
C1446      C1669   1.482       .  S
O1447     Zr1456   2.433       .  S
O1447      C1449   1.286       .  A
O1448      C1449   1.287       .  A
C1449      C1576   1.484       .  S
O1450     Zr2021   2.434       .  S
O1450      C1452   1.287       .  A
O1451      C1452   1.287       .  A
C1452      C1596   1.485       .  S
Zr1453     O2018   2.439   1_545  S
Zr1453     O1454   2.435       .  S
Zr1453     O1455   2.436       .  S
Zr1453     O1746   2.370   1_545  S
Zr1453     O2033   2.368   1_545  S
O1454      H1474   0.990       .  S
O1454      H1479   0.990       .  S
O1455      H1475   0.990   1_545  S
Zr1456     O2012   2.428   1_545  S
Zr1456     O1457   2.434       .  S
Zr1456     O1458   2.433       .  S
Zr1456     O2030   2.369   1_546  S
Zr1456     O1461   2.368   1_556  S
Zr1456     O2032   2.370   1_545  S
O1457      H2041   0.990       .  S
O1458      H1472   0.990       .  S
O1458      H1482   0.990       .  S
Zr1459     O1462   2.374   1_556  S
Zr1459     O1464   2.385       .  S
Zr1460     O1463   2.384       .  S
O1462     Zr1737   2.369       .  S
O1462     Zr2024   2.368   1_554  S
O1463     Zr2001   2.366   1_455  S
O1464     Zr2024   2.373       .  S
O1464      H1468   0.966       .  S
O1465     Zr2021   2.371       .  S
O1465      H1470   0.966       .  S
O1466     Zr2004   2.371   1_455  S
H1471      O2006   0.990       .  S
H1473      O2025   0.990       .  S
H1476      O2003   0.990       .  S
H1478      O2005   0.990       .  S
H1480      O2003   0.990       .  S
O1483     Zr1495   2.428       .  S
O1483      C1485   1.286       .  A
O1484     Zr1521   2.429       .  S
O1484      C1485   1.288       .  A
C1485      C1629   1.487       .  S
O1486     Zr1498   2.429       .  S
O1486      C1488   1.285       .  A
O1487     Zr1522   2.438       .  S
O1487      C1488   1.290       .  A
C1488      C1609   1.483       .  S
O1489     Zr1498   2.432       .  S
O1489      C1491   1.286       .  A
O1490     Zr1521   2.423       .  S
O1490      C1491   1.287       .  A
C1491      C1689   1.477       .  S
O1492     Zr1495   2.435       .  S
O1492      C1494   1.287       .  A
O1493     Zr1522   2.425       .  S
O1493      C1494   1.287       .  A
C1494      C1649   1.475       .  S
Zr1495     O1496   2.434       .  S
Zr1495     O1497   2.435       .  S
Zr1495     O1501   2.371       .  S
Zr1495     O1502   2.365       .  S
Zr1495     O1525   2.368       .  S
Zr1495     O1527   2.372       .  S
O1496      H1539   0.990       .  S
O1497      H1538   0.990       .  S
O1497      H1542   0.990       .  S
Zr1498     O1499   2.437       .  S
Zr1498     O1500   2.434       .  S
Zr1498     O1502   2.366       .  S
Zr1498     O1501   2.368       .  S
Zr1498     O1526   2.368       .  S
Zr1498     O1528   2.375       .  S
O1499      H1540   0.990       .  S
O1499      H1543   0.990       .  S
O1500      H1533   0.990       .  S
O1501     Zr1521   2.378       .  S
O1502     Zr1522   2.382       .  S
O1502      H1529   0.966       .  S
O1503     Zr1515   2.436       .  S
O1503      C1505   1.287       .  A
O1504     Zr1522   2.424       .  S
O1504      C1505   1.287       .  A
C1505      C1569   1.477       .  S
O1506     Zr1518   2.429       .  S
O1506      C1508   1.286       .  A
O1507     Zr1521   2.428       .  S
O1507      C1508   1.287       .  A
C1508      C1589   1.479       .  S
O1509     Zr1518   2.436       .  S
O1509      C1511   1.287       .  A
O1510     Zr1522   2.425       .  S
O1510      C1511   1.287       .  A
C1511      C1556   1.491       .  S
O1512     Zr1515   2.434       .  S
O1512      C1514   1.287       .  A
O1513     Zr1521   2.417       .  S
O1513      C1514   1.285       .  A
C1514      C1676   1.477       .  S
Zr1515     O1516   2.437       .  S
Zr1515     O1517   2.434       .  S
Zr1515     O1523   2.368       .  S
Zr1515     O1524   2.367       .  S
Zr1515     O1527   2.364       .  S
Zr1515     O1525   2.373       .  S
O1516      H1536   0.990       .  S
O1516      H1541   0.990       .  S
O1517      H1537   0.990       .  S
Zr1518     O1519   2.434       .  S
Zr1518     O1520   2.435       .  S
Zr1518     O1524   2.365       .  S
Zr1518     O1523   2.362       .  S
Zr1518     O1528   2.373       .  S
Zr1518     O1526   2.373       .  S
O1519      H1535   0.990       .  S
O1520      H1534   0.990       .  S
O1520      H1544   0.990       .  S
Zr1521     O1524   2.376       .  S
Zr1521     O1526   2.385       .  S
Zr1521     O1527   2.387       .  S
Zr1522     O1523   2.384       .  S
Zr1522     O1525   2.385       .  S
Zr1522     O1528   2.385       .  S
O1523      H1531   0.966       .  S
O1526      H1530   0.966       .  S
O1527      H1532   0.966       .  S
C1545      C1546   1.407       .  A
C1545      C1550   1.399       .  A
C1545      F1563   1.358       .  S
C1546      C1551   1.480       .  S
C1546      C1547   1.406       .  A
C1547      C1548   1.395       .  A
C1547      F1552   1.358       .  S
C1548      C1549   1.406       .  A
C1548      F1564   1.358       .  S
C1549      C1550   1.406       .  A
C1550      F1553   1.358       .  S
C1551      C1554   1.404       .  A
C1551      C1558   1.403       .  A
C1554      C1555   1.399       .  A
C1554      F1559   1.358       .  S
C1555      C1556   1.413       .  A
C1555      F1561   1.358       .  S
C1556      C1557   1.415       .  A
C1557      C1558   1.396       .  A
C1557      F1560   1.358       .  S
C1558      F1562   1.358       .  S
C1565      C1566   1.405       .  A
C1565      C1570   1.397       .  A
C1565      F1583   1.358       .  S
C1566      C1571   1.477       .  S
C1566      C1567   1.404       .  A
C1567      C1568   1.398       .  A
C1567      F1572   1.358       .  S
C1568      C1569   1.409       .  A
C1568      F1584   1.358       .  S
C1569      C1570   1.408       .  A
C1570      F1573   1.358       .  S
C1571      C1574   1.402       .  A
C1571      C1578   1.404       .  A
C1574      C1575   1.396       .  A
C1574      F1579   1.358       .  S
C1575      C1576   1.412       .  A
C1575      F1581   1.358       .  S
C1576      C1577   1.410       .  A
C1577      C1578   1.399       .  A
C1577      F1580   1.358       .  S
C1578      F1582   1.358       .  S
C1585      C1586   1.403       .  A
C1585      C1590   1.396       .  A
C1585      F1603   1.358       .  S
C1586      C1591   1.478       .  S
C1586      C1587   1.405       .  A
C1587      C1588   1.399       .  A
C1587      F1592   1.358       .  S
C1588      C1589   1.407       .  A
C1588      F1604   1.356       .  S
C1589      C1590   1.410       .  A
C1590      F1593   1.358       .  S
C1591      C1594   1.402       .  A
C1591      C1598   1.405       .  A
C1594      C1595   1.395       .  A
C1594      F1599   1.358       .  S
C1595      C1596   1.411       .  A
C1595      F1601   1.358       .  S
C1596      C1597   1.411       .  A
C1597      C1598   1.400       .  A
C1597      F1600   1.358       .  S
C1598      F1602   1.358       .  S
C1605      C1606   1.403       .  A
C1605      C1610   1.399       .  A
C1605      F1623   1.358       .  S
C1606      C1611   1.477       .  S
C1606      C1607   1.404       .  A
C1607      C1608   1.397       .  A
C1607      F1612   1.358       .  S
C1608      C1609   1.408       .  A
C1608      F1624   1.358       .  S
C1609      C1610   1.413       .  A
C1610      F1613   1.358       .  S
C1611      C1614   1.405       .  A
C1611      C1618   1.402       .  A
C1614      C1615   1.400       .  A
C1614      F1619   1.358       .  S
C1615      C1616   1.409       .  A
C1615      F1621   1.358       .  S
C1616      C1617   1.409       .  A
C1617      C1618   1.395       .  A
C1617      F1620   1.358       .  S
C1618      F1622   1.358       .  S
C1625      C1626   1.404       .  A
C1625      C1630   1.397       .  A
C1625      F1643   1.358       .  S
C1626      C1631   1.479       .  S
C1626      C1627   1.403       .  A
C1627      C1628   1.397       .  A
C1627      F1632   1.358       .  S
C1628      C1629   1.414       .  A
C1628      F1644   1.358       .  S
C1629      C1630   1.410       .  A
C1630      F1633   1.358       .  S
C1631      C1634   1.405       .  A
C1631      C1638   1.406       .  A
C1634      C1635   1.396       .  A
C1634      F1639   1.358       .  S
C1635      C1636   1.407       .  A
C1635      F1641   1.358       .  S
C1636      C1637   1.406       .  A
C1637      C1638   1.397       .  A
C1637      F1640   1.358       .  S
C1638      F1642   1.358       .  S
C1645      C1646   1.402       .  A
C1645      C1650   1.395       .  A
C1645      F1663   1.358       .  S
C1646      C1651   1.477       .  S
C1646      C1647   1.406       .  A
C1647      C1648   1.400       .  A
C1647      F1652   1.358       .  S
C1648      C1649   1.407       .  A
C1648      F1664   1.358       .  S
C1649      C1650   1.408       .  A
C1650      F1653   1.358       .  S
C1651      C1654   1.404       .  A
C1651      C1658   1.400       .  A
C1654      C1655   1.400       .  A
C1654      F1659   1.358       .  S
C1655      C1656   1.413       .  A
C1655      F1661   1.358       .  S
C1656      C1657   1.414       .  A
C1657      C1658   1.397       .  A
C1657      F1660   1.358       .  S
C1658      F1662   1.358       .  S
C1665      C1666   1.406       .  A
C1665      C1670   1.398       .  A
C1665      F1683   1.358       .  S
C1666      C1671   1.479       .  S
C1666      C1667   1.403       .  A
C1667      C1668   1.393       .  A
C1667      F1672   1.358       .  S
C1668      C1669   1.412       .  A
C1668      F1684   1.358       .  S
C1669      C1670   1.409       .  A
C1670      F1673   1.358       .  S
C1671      C1674   1.406       .  A
C1671      C1678   1.404       .  A
C1674      C1675   1.397       .  A
C1674      F1679   1.358       .  S
C1675      C1676   1.408       .  A
C1675      F1681   1.358       .  S
C1676      C1677   1.408       .  A
C1677      C1678   1.395       .  A
C1677      F1680   1.358       .  S
C1678      F1682   1.358       .  S
C1685      C1686   1.405       .  A
C1685      C1690   1.398       .  A
C1685      F1703   1.358       .  S
C1686      C1691   1.477       .  S
C1686      C1687   1.404       .  A
C1687      C1688   1.396       .  A
C1687      F1692   1.358       .  S
C1688      C1689   1.409       .  A
C1688      F1704   1.358       .  S
C1689      C1690   1.407       .  A
C1690      F1693   1.356       .  S
C1691      C1694   1.403       .  A
C1691      C1698   1.405       .  A
C1694      C1695   1.396       .  A
C1694      F1699   1.358       .  S
C1695      C1696   1.410       .  A
C1695      F1701   1.358       .  S
C1696      C1697   1.410       .  A
C1697      C1698   1.399       .  A
C1697      F1700   1.358       .  S
C1698      F1702   1.358       .  S
O1705     Zr1717   2.432   1_565  S
O1705      C1707   1.287       .  A
O1706      C1707   1.287       .  A
C1707      C1980   1.480       .  S
O1708      C1710   1.287       .  A
O1709     Zr2028   2.428   1_655  S
O1709      C1710   1.288       .  A
C1710      C1940   1.487       .  S
O1711     Zr1720   2.427   1_565  S
O1711      C1713   1.286       .  A
O1712      C1713   1.287       .  A
C1713      C1920   1.474       .  S
O1714      C1716   1.288       .  A
O1715     Zr1744   2.421   1_655  S
O1715      C1716   1.286       .  A
C1716      C1900   1.481       .  S
Zr1717     O1718   2.433       .  S
Zr1717     O1723   2.368   1_544  S
O1718      H1761   0.990       .  S
Zr1720     O1721   2.437       .  S
Zr1720     O2007   2.369   1_545  S
O1721      H1765   0.990       .  S
O1723     Zr2004   2.369   1_565  S
O1724     Zr1744   2.383   1_656  S
O1724      H2035   0.966       .  S
O1725     Zr1737   2.437       .  S
O1725      C1727   1.287       .  A
O1726      C1727   1.288       .  A
C1727      C1833   1.477       .  S
O1728      C1730   1.288       .  A
O1729     Zr1743   2.433       .  S
O1729      C1730   1.288       .  A
C1730      C1953   1.487       .  S
O1731     Zr1740   2.435       .  S
O1731      C1733   1.287       .  A
O1732      C1733   1.287       .  A
C1733      C1860   1.484       .  S
O1734      C1736   1.289       .  A
O1735     Zr2027   2.429   1_554  S
O1735      C1736   1.288       .  A
C1736      C1880   1.489       .  S
Zr1737     O1738   2.436       .  S
Zr1737     O1739   2.434       .  S
Zr1737     O2029   2.366       .  S
O1738      H1758   0.990       .  S
O1738      H1763   0.990       .  S
O1739      H1759   0.990       .  S
Zr1740     O1741   2.433       .  S
Zr1740     O1742   2.434       .  S
Zr1740     O1745   2.368       .  S
O1742      H1756   0.990       .  S
O1742      H1766   0.990       .  S
Zr1743     O2019   2.436       .  S
Zr1743     O1746   2.377       .  S
Zr1743     O1748   2.390       .  S
Zr1743     O2033   2.388       .  S
Zr1744     O1993   2.428   1_454  S
Zr1744     O1747   2.385       .  S
Zr1744     O2034   2.383   1_554  S
O1745     Zr2021   2.369       .  S
O1745      H2037   0.966       .  S
O1748      H1752   0.966       .  S
O1749     Zr2027   2.390   1_554  S
O1749      H1754   0.966       .  S
O1750     Zr2028   2.382       .  S
H1751      O2008   0.966       .  S
H1753      O2029   0.966       .  S
O1767     Zr1779   2.438       .  S
O1767      C1769   1.288       .  A
O1768     Zr1805   2.424       .  S
O1768      C1769   1.287       .  A
C1769      C1913   1.488       .  S
O1770     Zr1782   2.435       .  S
O1770      C1772   1.287       .  A
O1771     Zr1806   2.424       .  S
O1771      C1772   1.287       .  A
C1772      C1893   1.480       .  S
O1773     Zr1782   2.438       .  S
O1773      C1775   1.288       .  A
O1774     Zr1805   2.420       .  S
O1774      C1775   1.286       .  A
C1775      C1973   1.476       .  S
O1776     Zr1779   2.439       .  S
O1776      C1778   1.288       .  A
O1777     Zr1806   2.432       .  S
O1777      C1778   1.288       .  A
C1778      C1933   1.478       .  S
Zr1779     O1780   2.435       .  S
Zr1779     O1781   2.434       .  S
Zr1779     O1785   2.370       .  S
Zr1779     O1786   2.367       .  S
Zr1779     O1809   2.374       .  S
Zr1779     O1811   2.373       .  S
O1780      H1823   0.990       .  S
O1781      H1822   0.990       .  S
O1781      H1826   0.990       .  S
Zr1782     O1783   2.437       .  S
Zr1782     O1784   2.434       .  S
Zr1782     O1786   2.367       .  S
Zr1782     O1785   2.368       .  S
Zr1782     O1810   2.369       .  S
Zr1782     O1812   2.372       .  S
O1783      H1824   0.990       .  S
O1783      H1827   0.990       .  S
O1784      H1817   0.990       .  S
O1785     Zr1805   2.379       .  S
O1786     Zr1806   2.383       .  S
O1786      H1813   0.966       .  S
O1787     Zr1799   2.446       .  S
O1787      C1789   1.289       .  A
O1788     Zr1806   2.428       .  S
O1788      C1789   1.287       .  A
C1789      C1853   1.481       .  S
O1790     Zr1802   2.438       .  S
O1790      C1792   1.288       .  A
O1791     Zr1805   2.429       .  S
O1791      C1792   1.287       .  A
C1792      C1873   1.483       .  S
O1793     Zr1802   2.435       .  S
O1793      C1795   1.287       .  A
O1794     Zr1806   2.422       .  S
O1794      C1795   1.286       .  A
C1795      C1840   1.489       .  S
O1796     Zr1799   2.436       .  S
O1796      C1798   1.287       .  A
O1797     Zr1805   2.421       .  S
O1797      C1798   1.286       .  A
C1798      C1960   1.487       .  S
Zr1799     O1800   2.435       .  S
Zr1799     O1801   2.436       .  S
Zr1799     O1807   2.364       .  S
Zr1799     O1808   2.371       .  S
Zr1799     O1811   2.369       .  S
Zr1799     O1809   2.374       .  S
O1800      H1820   0.990       .  S
O1800      H1825   0.990       .  S
O1801      H1821   0.990       .  S
Zr1802     O1803   2.435       .  S
Zr1802     O1804   2.434       .  S
Zr1802     O1808   2.368       .  S
Zr1802     O1807   2.368       .  S
Zr1802     O1812   2.370       .  S
Zr1802     O1810   2.369       .  S
O1803      H1819   0.990       .  S
O1804      H1818   0.990       .  S
O1804      H1828   0.990       .  S
Zr1805     O1808   2.376       .  S
Zr1805     O1810   2.384       .  S
Zr1805     O1811   2.386       .  S
Zr1806     O1807   2.382       .  S
Zr1806     O1809   2.383       .  S
Zr1806     O1812   2.383       .  S
O1807      H1815   0.966       .  S
O1810      H1814   0.966       .  S
O1811      H1816   0.966       .  S
C1829      C1830   1.406       .  A
C1829      C1834   1.401       .  A
C1829      F1847   1.358       .  S
C1830      C1835   1.482       .  S
C1830      C1831   1.406       .  A
C1831      C1832   1.397       .  A
C1831      F1836   1.358       .  S
C1832      C1833   1.406       .  A
C1832      F1848   1.358       .  S
C1833      C1834   1.408       .  A
C1834      F1837   1.358       .  S
C1835      C1838   1.405       .  A
C1835      C1842   1.403       .  A
C1838      C1839   1.399       .  A
C1838      F1843   1.358       .  S
C1839      C1840   1.412       .  A
C1839      F1845   1.358       .  S
C1840      C1841   1.413       .  A
C1841      C1842   1.396       .  A
C1841      F1844   1.358       .  S
C1842      F1846   1.358       .  S
C1849      C1850   1.404       .  A
C1849      C1854   1.400       .  A
C1849      F1867   1.358       .  S
C1850      C1855   1.479       .  S
C1850      C1851   1.403       .  A
C1851      C1852   1.399       .  A
C1851      F1856   1.358       .  S
C1852      C1853   1.408       .  A
C1852      F1868   1.358       .  S
C1853      C1854   1.409       .  A
C1854      F1857   1.358       .  S
C1855      C1858   1.402       .  A
C1855      C1862   1.404       .  A
C1858      C1859   1.398       .  A
C1858      F1863   1.358       .  S
C1859      C1860   1.411       .  A
C1859      F1865   1.358       .  S
C1860      C1861   1.410       .  A
C1861      C1862   1.400       .  A
C1861      F1864   1.358       .  S
C1862      F1866   1.357       .  S
C1869      C1870   1.404       .  A
C1869      C1874   1.398       .  A
C1869      F1887   1.358       .  S
C1870      C1875   1.483       .  S
C1870      C1871   1.406       .  A
C1871      C1872   1.401       .  A
C1871      F1876   1.358       .  S
C1872      C1873   1.408       .  A
C1872      F1888   1.356       .  S
C1873      C1874   1.409       .  A
C1874      F1877   1.358       .  S
C1875      C1878   1.403       .  A
C1875      C1882   1.405       .  A
C1878      C1879   1.399       .  A
C1878      F1883   1.358       .  S
C1879      C1880   1.412       .  A
C1879      F1885   1.358       .  S
C1880      C1881   1.411       .  A
C1881      C1882   1.401       .  A
C1881      F1884   1.358       .  S
C1882      F1886   1.358       .  S
C1889      C1890   1.403       .  A
C1889      C1894   1.398       .  A
C1889      F1907   1.358       .  S
C1890      C1895   1.477       .  S
C1890      C1891   1.405       .  A
C1891      C1892   1.397       .  A
C1891      F1896   1.358       .  S
C1892      C1893   1.409       .  A
C1892      F1908   1.358       .  S
C1893      C1894   1.411       .  A
C1894      F1897   1.358       .  S
C1895      C1898   1.405       .  A
C1895      C1902   1.402       .  A
C1898      C1899   1.400       .  A
C1898      F1903   1.358       .  S
C1899      C1900   1.409       .  A
C1899      F1905   1.358       .  S
C1900      C1901   1.410       .  A
C1901      C1902   1.395       .  A
C1901      F1904   1.358       .  S
C1902      F1906   1.358       .  S
C1909      C1910   1.405       .  A
C1909      C1914   1.398       .  A
C1909      F1927   1.358       .  S
C1910      C1915   1.480       .  S
C1910      C1911   1.403       .  A
C1911      C1912   1.396       .  A
C1911      F1916   1.358       .  S
C1912      C1913   1.413       .  A
C1912      F1928   1.358       .  S
C1913      C1914   1.412       .  A
C1914      F1917   1.358       .  S
C1915      C1918   1.405       .  A
C1915      C1922   1.406       .  A
C1918      C1919   1.397       .  A
C1918      F1923   1.358       .  S
C1919      C1920   1.408       .  A
C1919      F1925   1.358       .  S
C1920      C1921   1.405       .  A
C1921      C1922   1.397       .  A
C1921      F1924   1.357       .  S
C1922      F1926   1.358       .  S
C1929      C1930   1.402       .  A
C1929      C1934   1.397       .  A
C1929      F1947   1.358       .  S
C1930      C1935   1.477       .  S
C1930      C1931   1.405       .  A
C1931      C1932   1.401       .  A
C1931      F1936   1.358       .  S
C1932      C1933   1.407       .  A
C1932      F1948   1.358       .  S
C1933      C1934   1.409       .  A
C1934      F1937   1.358       .  S
C1935      C1938   1.404       .  A
C1935      C1942   1.401       .  A
C1938      C1939   1.399       .  A
C1938      F1943   1.358       .  S
C1939      C1940   1.411       .  A
C1939      F1945   1.358       .  S
C1940      C1941   1.413       .  A
C1941      C1942   1.397       .  A
C1941      F1944   1.358       .  S
C1942      F1946   1.358       .  S
C1949      C1950   1.407       .  A
C1949      C1954   1.401       .  A
C1949      F1967   1.358       .  S
C1950      C1955   1.485       .  S
C1950      C1951   1.404       .  A
C1951      C1952   1.398       .  A
C1951      F1956   1.358       .  S
C1952      C1953   1.411       .  A
C1952      F1968   1.358       .  S
C1953      C1954   1.409       .  A
C1954      F1957   1.357       .  S
C1955      C1958   1.406       .  A
C1955      C1962   1.404       .  A
C1958      C1959   1.399       .  A
C1958      F1963   1.358       .  S
C1959      C1960   1.411       .  A
C1959      F1965   1.358       .  S
C1960      C1961   1.412       .  A
C1961      C1962   1.397       .  A
C1961      F1964   1.358       .  S
C1962      F1966   1.358       .  S
C1969      C1970   1.404       .  A
C1969      C1974   1.399       .  A
C1969      F1987   1.358       .  S
C1970      C1975   1.475       .  S
C1970      C1971   1.402       .  A
C1971      C1972   1.396       .  A
C1971      F1976   1.358       .  S
C1972      C1973   1.407       .  A
C1972      F1988   1.358       .  S
C1973      C1974   1.407       .  A
C1974      F1977   1.356       .  S
C1975      C1978   1.402       .  A
C1975      C1982   1.404       .  A
C1978      C1979   1.397       .  A
C1978      F1983   1.358       .  S
C1979      C1980   1.411       .  A
C1979      F1985   1.358       .  S
C1980      C1981   1.409       .  A
C1981      C1982   1.398       .  A
C1981      F1984   1.358       .  S
C1982      F1986   1.358       .  S
O1989     Zr2001   2.429   1_565  S
O1989      C1991   1.286       .  A
O1990      C1991   1.288       .  A
C1991      C2264   1.481       .  S
O1992      C1994   1.288       .  A
O1993      C1994   1.288       .  A
C1994      C2224   1.489       .  S
O1995     Zr2004   2.426   1_565  S
O1995      C1997   1.285       .  A
O1996      C1997   1.287       .  A
C1997      C2204   1.472       .  S
O1998      C2000   1.288       .  A
O1999     Zr2028   2.420   1_655  S
O1999      C2000   1.286       .  A
C2000      C2184   1.483       .  S
Zr2001     O2002   2.434       .  S
Zr2001     O2007   2.369   1_545  S
O2002      H2045   0.990       .  S
Zr2004     O2005   2.436       .  S
O2005      H2049   0.990       .  S
O2008     Zr2028   2.385   1_655  S
O2009     Zr2021   2.437       .  S
O2009      C2011   1.287       .  A
O2010      C2011   1.288       .  A
C2011      C2117   1.477       .  S
O2012      C2014   1.286       .  A
O2013     Zr2027   2.432       .  S
O2013      C2014   1.288       .  A
C2014      C2237   1.482       .  S
O2015     Zr2024   2.433       .  S
O2015      C2017   1.287       .  A
O2016      C2017   1.286       .  A
C2017      C2144   1.481       .  S
O2018      C2020   1.288       .  A
O2019      C2020   1.289       .  A
C2020      C2164   1.491       .  S
Zr2021     O2022   2.437       .  S
Zr2021     O2023   2.435       .  S
O2022      H2042   0.990       .  S
O2022      H2047   0.990       .  S
O2023      H2043   0.989       .  S
Zr2024     O2025   2.434       .  S
Zr2024     O2026   2.435       .  S
Zr2024     O2029   2.366   1_556  S
O2026      H2040   0.990       .  S
O2026      H2050   0.990       .  S
Zr2027     O2030   2.376   1_556  S
Zr2027     O2032   2.384       .  S
Zr2028     O2031   2.386       .  S
O2032      H2036   0.966       .  S
O2033      H2038   0.966       .  S
O2051     Zr2063   2.435       .  S
O2051      C2053   1.287       .  A
O2052     Zr2089   2.416       .  S
O2052      C2053   1.286       .  A
C2053      C2197   1.485       .  S
O2054     Zr2066   2.433       .  S
O2054      C2056   1.286       .  A
O2055     Zr2090   2.428       .  S
O2055      C2056   1.288       .  A
C2056      C2177   1.481       .  S
O2057     Zr2066   2.437       .  S
O2057      C2059   1.288       .  A
O2058     Zr2089   2.427       .  S
O2058      C2059   1.287       .  A
C2059      C2257   1.478       .  S
O2060     Zr2063   2.436       .  S
O2060      C2062   1.287       .  A
O2061     Zr2090   2.429       .  S
O2061      C2062   1.287       .  A
C2062      C2217   1.476       .  S
Zr2063     O2064   2.434       .  S
Zr2063     O2065   2.435       .  S
Zr2063     O2069   2.370       .  S
Zr2063     O2070   2.369       .  S
Zr2063     O2093   2.372       .  S
Zr2063     O2095   2.372       .  S
O2064      H2107   0.990       .  S
O2065      H2106   0.990       .  S
O2065      H2110   0.990       .  S
Zr2066     O2067   2.437       .  S
Zr2066     O2068   2.434       .  S
Zr2066     O2070   2.368       .  S
Zr2066     O2069   2.368       .  S
Zr2066     O2094   2.371       .  S
Zr2066     O2096   2.374       .  S
O2067      H2108   0.990       .  S
O2067      H2111   0.990       .  S
O2068      H2101   0.990       .  S
O2069     Zr2089   2.378       .  S
O2070     Zr2090   2.383       .  S
O2070      H2097   0.966       .  S
O2071     Zr2083   2.442       .  S
O2071      C2073   1.288       .  A
O2072     Zr2090   2.428       .  S
O2072      C2073   1.288       .  A
C2073      C2137   1.479       .  S
O2074     Zr2086   2.442       .  S
O2074      C2076   1.288       .  A
O2075     Zr2089   2.426       .  S
O2075      C2076   1.287       .  A
C2076      C2157   1.483       .  S
O2077     Zr2086   2.441       .  S
O2077      C2079   1.288       .  A
O2078     Zr2090   2.423       .  S
O2078      C2079   1.287       .  A
C2079      C2124   1.491       .  S
O2080     Zr2083   2.438       .  S
O2080      C2082   1.288       .  A
O2081     Zr2089   2.424       .  S
O2081      C2082   1.287       .  A
C2082      C2244   1.488       .  S
Zr2083     O2084   2.436       .  S
Zr2083     O2085   2.434       .  S
Zr2083     O2091   2.366       .  S
Zr2083     O2092   2.369       .  S
Zr2083     O2095   2.368       .  S
Zr2083     O2093   2.373       .  S
O2084      H2104   0.990       .  S
O2084      H2109   0.990       .  S
O2085      H2105   0.990       .  S
Zr2086     O2087   2.433       .  S
Zr2086     O2088   2.434       .  S
Zr2086     O2092   2.366       .  S
Zr2086     O2091   2.367       .  S
Zr2086     O2096   2.372       .  S
Zr2086     O2094   2.370       .  S
O2087      H2103   0.990       .  S
O2088      H2102   0.990       .  S
O2088      H2112   0.990       .  S
Zr2089     O2092   2.374       .  S
Zr2089     O2094   2.382       .  S
Zr2089     O2095   2.386       .  S
Zr2090     O2091   2.381       .  S
Zr2090     O2093   2.384       .  S
Zr2090     O2096   2.383       .  S
O2091      H2099   0.966       .  S
O2094      H2098   0.966       .  S
O2095      H2100   0.966       .  S
C2113      C2114   1.407       .  A
C2113      C2118   1.401       .  A
C2113      F2131   1.358       .  S
C2114      C2119   1.483       .  S
C2114      C2115   1.405       .  A
C2115      C2116   1.396       .  A
C2115      F2120   1.358       .  S
C2116      C2117   1.406       .  A
C2116      F2132   1.358       .  S
C2117      C2118   1.409       .  A
C2118      F2121   1.358       .  S
C2119      C2122   1.404       .  A
C2119      C2126   1.404       .  A
C2122      C2123   1.400       .  A
C2122      F2127   1.358       .  S
C2123      C2124   1.413       .  A
C2123      F2129   1.358       .  S
C2124      C2125   1.414       .  A
C2125      C2126   1.397       .  A
C2125      F2128   1.358       .  S
C2126      F2130   1.358       .  S
C2133      C2134   1.404       .  A
C2133      C2138   1.399       .  A
C2133      F2151   1.358       .  S
C2134      C2139   1.476       .  S
C2134      C2135   1.403       .  A
C2135      C2136   1.398       .  A
C2135      F2140   1.358       .  S
C2136      C2137   1.408       .  A
C2136      F2152   1.358       .  S
C2137      C2138   1.409       .  A
C2138      F2141   1.358       .  S
C2139      C2142   1.402       .  A
C2139      C2146   1.404       .  A
C2142      C2143   1.396       .  A
C2142      F2147   1.358       .  S
C2143      C2144   1.411       .  A
C2143      F2149   1.358       .  S
C2144      C2145   1.409       .  A
C2145      C2146   1.399       .  A
C2145      F2148   1.358       .  S
C2146      F2150   1.358       .  S
C2153      C2154   1.405       .  A
C2153      C2158   1.400       .  A
C2153      F2171   1.358       .  S
C2154      C2159   1.484       .  S
C2154      C2155   1.406       .  A
C2155      C2156   1.400       .  A
C2155      F2160   1.358       .  S
C2156      C2157   1.408       .  A
C2156      F2172   1.357       .  S
C2157      C2158   1.410       .  A
C2158      F2161   1.358       .  S
C2159      C2162   1.403       .  A
C2159      C2166   1.405       .  A
C2162      C2163   1.399       .  A
C2162      F2167   1.358       .  S
C2163      C2164   1.413       .  A
C2163      F2169   1.358       .  S
C2164      C2165   1.411       .  A
C2165      C2166   1.402       .  A
C2165      F2168   1.358       .  S
C2166      F2170   1.358       .  S
C2173      C2174   1.403       .  A
C2173      C2178   1.398       .  A
C2173      F2191   1.358       .  S
C2174      C2179   1.478       .  S
C2174      C2175   1.405       .  A
C2175      C2176   1.397       .  A
C2175      F2180   1.358       .  S
C2176      C2177   1.408       .  A
C2176      F2192   1.358       .  S
C2177      C2178   1.411       .  A
C2178      F2181   1.358       .  S
C2179      C2182   1.406       .  A
C2179      C2186   1.402       .  A
C2182      C2183   1.400       .  A
C2182      F2187   1.358       .  S
C2183      C2184   1.410       .  A
C2183      F2189   1.358       .  S
C2184      C2185   1.411       .  A
C2185      C2186   1.394       .  A
C2185      F2188   1.358       .  S
C2186      F2190   1.358       .  S
C2193      C2194   1.404       .  A
C2193      C2198   1.397       .  A
C2193      F2211   1.358       .  S
C2194      C2199   1.477       .  S
C2194      C2195   1.403       .  A
C2195      C2196   1.395       .  A
C2195      F2200   1.358       .  S
C2196      C2197   1.412       .  A
C2196      F2212   1.358       .  S
C2197      C2198   1.412       .  A
C2198      F2201   1.358       .  S
C2199      C2202   1.404       .  A
C2199      C2206   1.406       .  A
C2202      C2203   1.396       .  A
C2202      F2207   1.358       .  S
C2203      C2204   1.408       .  A
C2203      F2209   1.358       .  S
C2204      C2205   1.404       .  A
C2205      C2206   1.396       .  A
C2205      F2208   1.357       .  S
C2206      F2210   1.358       .  S
C2213      C2214   1.403       .  A
C2213      C2218   1.396       .  A
C2213      F2231   1.358       .  S
C2214      C2219   1.478       .  S
C2214      C2215   1.406       .  A
C2215      C2216   1.400       .  A
C2215      F2220   1.358       .  S
C2216      C2217   1.406       .  A
C2216      F2232   1.358       .  S
C2217      C2218   1.408       .  A
C2218      F2221   1.358       .  S
C2219      C2222   1.404       .  A
C2219      C2226   1.401       .  A
C2222      C2223   1.399       .  A
C2222      F2227   1.358       .  S
C2223      C2224   1.412       .  A
C2223      F2229   1.358       .  S
C2224      C2225   1.414       .  A
C2225      C2226   1.398       .  A
C2225      F2228   1.358       .  S
C2226      F2230   1.358       .  S
C2233      C2234   1.408       .  A
C2233      C2238   1.400       .  A
C2233      F2251   1.358       .  S
C2234      C2239   1.484       .  S
C2234      C2235   1.404       .  A
C2235      C2236   1.397       .  A
C2235      F2240   1.358       .  S
C2236      C2237   1.411       .  A
C2236      F2252   1.358       .  S
C2237      C2238   1.407       .  A
C2238      F2241   1.357       .  S
C2239      C2242   1.406       .  A
C2239      C2246   1.404       .  A
C2242      C2243   1.400       .  A
C2242      F2247   1.358       .  S
C2243      C2244   1.412       .  A
C2243      F2249   1.358       .  S
C2244      C2245   1.412       .  A
C2245      C2246   1.397       .  A
C2245      F2248   1.358       .  S
C2246      F2250   1.358       .  S
C2253      C2254   1.404       .  A
C2253      C2258   1.399       .  A
C2253      F2271   1.358       .  S
C2254      C2259   1.476       .  S
C2254      C2255   1.403       .  A
C2255      C2256   1.398       .  A
C2255      F2260   1.358       .  S
C2256      C2257   1.409       .  A
C2256      F2272   1.358       .  S
C2257      C2258   1.407       .  A
C2258      F2261   1.357       .  S
C2259      C2262   1.402       .  A
C2259      C2266   1.404       .  A
C2262      C2263   1.397       .  A
C2262      F2267   1.358       .  S
C2263      C2264   1.411       .  A
C2263      F2269   1.358       .  S
C2264      C2265   1.409       .  A
C2265      C2266   1.399       .  A
C2265      F2268   1.358       .  S
C2266      F2270   1.358       .  S
